<?xml version="1.0" encoding="UTF-8"?>

<!-- generated on 05/07/20 19:10:13 by Eclipse SUMO polyconvert Version 1.5.0
<configuration xmlns:xsi="http://www.w3.org/2001/XMLSchema-instance" xsi:noNamespaceSchemaLocation="http://sumo.dlr.de/xsd/polyconvertConfiguration.xsd">

    <input>
        <net-file value="osm.net.xml"/>
        <osm-files value="osm_bbox.osm.xml"/>
        <osm.keep-full-type value="true"/>
        <type-file value="C:\Program%20Files%20(x86)\Eclipse\Sumo\data\typemap\osmPolyconvert.typ.xml"/>
    </input>

    <output>
        <output-file value="osm.poly.xml"/>
    </output>

    <processing>
        <poi-layer-offset value="5"/>
    </processing>

    <report>
        <verbose value="true"/>
    </report>

</configuration>
-->

<additional xmlns:xsi="http://www.w3.org/2001/XMLSchema-instance" xsi:noNamespaceSchemaLocation="http://sumo.dlr.de/xsd/additional_file.xsd">
    <location netOffset="-595192.81,-4523472.41" convBoundary="0.00,0.00,3399.99,2055.01" origBoundary="-73.870462,40.856437,-73.830184,40.875003" projParameter="+proj=utm +zone=18 +ellps=WGS84 +datum=WGS84 +units=m +no_defs"/>

    <poly id="281598184" type="building.yes" color="255,230,230" fill="1" layer="-1.00" shape="2517.721769,929.608048 2514.198020,929.639109 2514.254367,935.568839 2512.677974,935.581274 2512.759899,943.398847 2517.851605,943.355239 2517.751754,933.072571 2517.721769,929.608048"/>
    <poly id="281598185" type="building.yes" color="255,230,230" fill="1" layer="-1.00" shape="2517.851605,943.355239 2523.078299,943.302320 2522.978455,933.019651 2517.751754,933.072571 2517.851605,943.355239"/>
    <poly id="281598187" type="building.yes" color="255,230,230" fill="1" layer="-1.00" shape="2531.874672,932.748861 2526.673841,932.757705 2526.706553,943.017279 2531.899097,942.997223 2531.874672,932.748861"/>
    <poly id="281598190" type="building.yes" color="255,230,230" fill="1" layer="-1.00" shape="2531.899097,942.997223 2536.670116,942.982690 2536.645698,932.734328 2531.874672,932.748861 2531.899097,942.997223"/>
    <poly id="281598192" type="building.yes" color="255,230,230" fill="1" layer="-1.00" shape="2546.986015,932.893492 2542.687521,932.869865 2542.680162,935.334626 2541.972100,935.336351 2541.930521,942.930230 2546.928496,942.963122 2546.986015,932.893492"/>
    <poly id="281598194" type="building.yes" color="255,230,230" fill="1" layer="-1.00" shape="2546.928496,942.963122 2551.876053,942.984246 2551.917201,935.423670 2551.032308,935.411948 2551.048539,932.913995 2546.986015,932.893492 2546.928496,942.963122"/>
    <poly id="281598196" type="building.yes" color="255,230,230" fill="1" layer="-1.00" shape="2563.349050,932.721647 2558.535297,932.780009 2558.645284,942.929579 2563.450602,942.871106 2563.349050,932.721647"/>
    <poly id="281598198" type="building.yes" color="255,230,230" fill="1" layer="-1.00" shape="2563.450602,942.871106 2568.837568,942.809239 2568.753350,935.169281 2567.792315,935.178754 2567.766413,932.680243 2563.349050,932.721647 2563.450602,942.871106"/>
    <poly id="281598199" type="building.yes" color="255,230,230" fill="1" layer="-1.00" shape="2600.392280,705.834813 2591.787332,705.731888 2591.684847,714.102166 2595.957746,714.158787 2595.979370,712.526937 2600.311264,712.584343 2600.392280,705.834813"/>
    <poly id="281598200" type="building.yes" color="255,230,230" fill="1" layer="-1.00" shape="2599.721927,926.242043 2594.487085,926.272594 2594.593051,941.174184 2599.827882,941.143632 2599.740714,928.640533 2599.721927,926.242043"/>
    <poly id="281598201" type="building.yes" color="255,230,230" fill="1" layer="-1.00" shape="2599.827882,941.143632 2604.801460,941.109622 2604.714300,928.606523 2599.740714,928.640533 2599.827882,941.143632"/>
    <poly id="281598202" type="building.yes" color="255,230,230" fill="1" layer="-1.00" shape="2613.241466,925.655123 2608.841394,925.663421 2608.843070,928.716760 2608.194000,928.719260 2608.202911,940.766100 2613.260470,940.755415 2613.245494,928.530846 2613.241466,925.655123"/>
    <poly id="281598203" type="building.yes" color="255,230,230" fill="1" layer="-1.00" shape="2613.260470,940.755415 2618.326310,940.755945 2618.319770,928.531488 2613.245494,928.530846 2613.260470,940.755415"/>
    <poly id="281598204" type="building.yes" color="255,230,230" fill="1" layer="-1.00" shape="2633.935594,926.229227 2628.041636,926.384253 2628.065486,927.128468 2621.901846,927.279923 2622.285277,942.229605 2634.334423,941.923013 2633.935594,926.229227"/>
    <poly id="281598205" type="building.yes" color="255,230,230" fill="1" layer="-1.00" shape="2630.898098,712.179228 2625.569662,712.264037 2625.584243,713.707616 2623.543831,713.747187 2623.739509,726.329443 2631.116772,726.205175 2630.898098,712.179228"/>
    <poly id="281598206" type="building.yes" color="255,230,230" fill="1" layer="-1.00" shape="2634.334423,941.923013 2644.671896,941.660364 2644.604766,939.094688 2646.308014,939.050653 2645.996509,926.944284 2640.473657,927.082014 2640.425038,925.027320 2633.907144,925.196274 2633.935594,926.229227 2634.334423,941.923013"/>
    <poly id="281598207" type="building.yes" color="255,230,230" fill="1" layer="-1.00" shape="2643.849791,708.675848 2635.049681,708.670211 2635.036019,724.325214 2643.844538,724.330963 2643.850643,710.518952 2643.849791,708.675848"/>
    <poly id="281598208" type="building.yes" color="255,230,230" fill="1" layer="-1.00" shape="2680.770755,922.797709 2673.731378,922.881991 2673.899122,937.562346 2675.441806,937.549498 2675.456229,939.004179 2680.952760,938.943847 2680.770755,922.797709"/>
    <poly id="281598209" type="building.yes" color="255,230,230" fill="1" layer="-1.00" shape="2691.115633,919.437493 2684.381854,919.359274 2684.175177,938.753427 2689.804929,938.817002 2689.827607,937.107444 2690.923189,937.121977 2691.115633,919.437493"/>
    <poly id="281598210" type="building.yes" color="255,230,230" fill="1" layer="-1.00" shape="2690.923189,937.121977 2692.524571,937.132118 2692.505575,938.564149 2698.000486,938.625941 2698.177223,922.762136 2697.309183,922.750620 2697.343905,919.497909 2691.115633,919.437493 2690.923189,937.121977"/>
    <poly id="281598211" type="building.yes" color="255,230,230" fill="1" layer="-1.00" shape="2707.368428,928.213502 2702.310416,928.257426 2702.412793,940.871763 2710.918695,940.795864 2708.616228,932.637938 2707.368428,928.213502"/>
    <poly id="281598212" type="building.yes" color="255,230,230" fill="1" layer="-1.00" shape="2697.846651,709.403037 2692.012983,709.447786 2692.077754,720.451689 2697.911413,720.406939 2697.846651,709.403037"/>
    <poly id="281598213" type="building.yes" color="255,230,230" fill="1" layer="-1.00" shape="2697.911413,720.406939 2703.239109,720.377688 2703.174355,709.373785 2697.846651,709.403037 2697.911413,720.406939"/>
    <poly id="281598214" type="building.yes" color="255,230,230" fill="1" layer="-1.00" shape="2717.258002,929.310677 2710.512660,931.375154 2713.776435,942.044006 2720.513194,939.990521 2717.258002,929.310677"/>
    <poly id="281598215" type="building.yes" color="255,230,230" fill="1" layer="-1.00" shape="2755.617156,926.244599 2749.285105,926.382610 2749.527961,937.932929 2752.445368,937.860623 2752.497521,940.281765 2755.920728,940.205071 2755.856731,937.406271 2755.617156,926.244599"/>
    <poly id="281598217" type="building.yes" color="255,230,230" fill="1" layer="-1.00" shape="2755.856731,937.406271 2761.969656,937.265358 2761.721515,926.114675 2755.617156,926.244599 2755.856731,937.406271"/>
    <poly id="281598219" type="building.yes" color="255,230,230" fill="1" layer="-1.00" shape="2771.438877,928.120081 2765.563832,928.119806 2765.582332,938.790013 2771.457517,938.779187 2771.438877,928.120081"/>
    <poly id="281598220" type="building.yes" color="255,230,230" fill="1" layer="-1.00" shape="2771.457517,938.779187 2776.489798,938.768277 2776.471166,928.109171 2771.438877,928.120081 2771.457517,938.779187"/>
    <poly id="281598225" type="building.yes" color="255,230,230" fill="1" layer="-1.00" shape="2683.950445,705.310467 2671.880336,705.261417 2671.852288,711.190030 2683.922240,711.250182 2683.950445,705.310467"/>
    <poly id="281598226" type="building.yes" color="255,230,230" fill="1" layer="-1.00" shape="2767.162816,704.804683 2750.292115,705.080383 2750.414880,712.343357 2761.763136,712.160895 2761.795018,714.204265 2767.317297,714.122128 2767.162816,704.804683"/>
    <poly id="281598227" type="building.yes" color="255,230,230" fill="1" layer="-1.00" shape="2802.372067,706.071572 2785.757001,706.139629 2785.784051,712.990523 2802.398954,712.933567 2802.372067,706.071572"/>
    <poly id="281598228" type="building.yes" color="255,230,230" fill="1" layer="-1.00" shape="2563.425153,710.641129 2563.411736,709.108742 2565.907103,709.086284 2565.863323,704.755548 2549.348230,704.914286 2549.405440,710.777408 2552.347628,710.749761 2563.425153,710.641129"/>
    <poly id="281598229" type="building.yes" color="255,230,230" fill="1" layer="-1.00" shape="2521.961453,711.279990 2511.836422,711.390192 2511.904491,717.708678 2522.029515,717.598477 2521.961453,711.279990"/>
    <poly id="281598230" type="building.yes" color="255,230,230" fill="1" layer="-1.00" shape="2785.784051,712.990523 2785.783635,713.656696 2781.855391,713.671159 2781.882859,719.855880 2802.426135,719.773361 2802.398954,712.933567 2785.784051,712.990523"/>
    <poly id="281598231" type="building.yes" color="255,230,230" fill="1" layer="-1.00" shape="2563.425153,710.641129 2552.347628,710.749761 2552.413605,717.223662 2563.491120,717.115031 2563.425153,710.641129"/>
    <poly id="281598232" type="building.yes" color="255,230,230" fill="1" layer="-1.00" shape="2671.852288,711.190030 2671.822473,717.251856 2683.892415,717.312008 2683.922240,711.250182 2671.852288,711.190030"/>
    <poly id="281598233" type="building.yes" color="255,230,230" fill="1" layer="-1.00" shape="2522.029515,717.598477 2511.904491,717.708678 2511.974471,723.882852 2522.099486,723.772650 2522.029515,717.598477"/>
    <poly id="281598234" type="building.yes" color="255,230,230" fill="1" layer="-1.00" shape="2802.655291,730.446363 2785.904404,730.590336 2785.966342,737.352870 2802.708787,737.208786 2802.655291,730.446363"/>
    <poly id="281598235" type="building.yes" color="255,230,230" fill="1" layer="-1.00" shape="2563.491120,717.115031 2552.413605,717.223662 2552.473359,723.530937 2563.550864,723.422306 2563.491120,717.115031"/>
    <poly id="281598236" type="building.yes" color="255,230,230" fill="1" layer="-1.00" shape="2671.490290,720.689371 2671.398278,727.627507 2672.611880,727.643601 2672.565947,731.107118 2684.069880,731.259692 2684.207842,720.858039 2671.490290,720.689371"/>
    <poly id="281598237" type="building.yes" color="255,230,230" fill="1" layer="-1.00" shape="2522.099486,723.772650 2511.974471,723.882852 2512.037787,729.923701 2522.162793,729.813500 2522.099486,723.772650"/>
    <poly id="281598238" type="building.yes" color="255,230,230" fill="1" layer="-1.00" shape="2761.651123,716.789348 2750.610106,716.687210 2750.554942,722.748701 2761.595950,722.850839 2761.651123,716.789348"/>
    <poly id="281598239" type="building.yes" color="255,230,230" fill="1" layer="-1.00" shape="2785.966342,737.352870 2786.024743,744.381829 2802.767172,744.237745 2802.708787,737.208786 2785.966342,737.352870"/>
    <poly id="281598240" type="building.yes" color="255,230,230" fill="1" layer="-1.00" shape="2565.758620,729.202888 2565.700688,723.395271 2563.550864,723.422306 2552.473359,723.530937 2552.531301,729.338555 2563.693223,729.219939 2565.758620,729.202888"/>
    <poly id="281598241" type="building.yes" color="255,230,230" fill="1" layer="-1.00" shape="2522.162793,729.813500 2512.037787,729.923701 2512.109824,735.942460 2522.234822,735.832259 2522.162793,729.813500"/>
    <poly id="281598243" type="building.yes" color="255,230,230" fill="1" layer="-1.00" shape="2750.554942,722.748701 2750.498748,728.887899 2761.539894,728.978936 2761.595950,722.850839 2750.554942,722.748701"/>
    <poly id="281598245" type="building.yes" color="255,230,230" fill="1" layer="-1.00" shape="2598.497574,726.683280 2599.997427,726.725362 2600.091643,722.796161 2591.825151,722.597793 2591.619032,731.155449 2598.385515,731.322835 2598.497574,726.683280"/>
    <poly id="281598246" type="building.yes" color="255,230,230" fill="1" layer="-1.00" shape="2802.854085,754.831138 2786.313062,755.044513 2786.399693,761.851787 2802.940701,761.638412 2802.854085,754.831138"/>
    <poly id="281598247" type="building.yes" color="255,230,230" fill="1" layer="-1.00" shape="2563.693223,729.219939 2552.531301,729.338555 2552.586891,735.323789 2563.757232,735.205285 2563.693223,729.219939"/>
    <poly id="281598248" type="building.yes" color="255,230,230" fill="1" layer="-1.00" shape="2522.234822,735.832259 2512.109824,735.942460 2512.177010,742.327553 2522.302000,742.217353 2522.234822,735.832259"/>
    <poly id="281598249" type="building.yes" color="255,230,230" fill="1" layer="-1.00" shape="2761.752410,733.289711 2751.063174,733.358786 2751.088457,736.534572 2749.174761,736.553584 2749.197953,739.251915 2761.792448,739.163716 2761.752410,733.289711"/>
    <poly id="281598250" type="building.yes" color="255,230,230" fill="1" layer="-1.00" shape="2644.411739,736.862631 2643.492669,736.883755 2643.424209,734.417988 2631.568121,734.760443 2631.666068,738.181456 2627.635382,738.294569 2627.757035,742.470897 2643.129406,742.030716 2643.060799,739.576050 2644.485830,739.539429 2644.411739,736.862631"/>
    <poly id="281598251" type="building.yes" color="255,230,230" fill="1" layer="-1.00" shape="2786.399693,761.851787 2786.484407,768.803374 2803.025399,768.590000 2802.940701,761.638412 2786.399693,761.851787"/>
    <poly id="281598252" type="building.yes" color="255,230,230" fill="1" layer="-1.00" shape="2563.757232,735.205285 2552.586891,735.323789 2552.654190,741.697781 2563.815946,741.590267 2563.757232,735.205285"/>
    <poly id="281598253" type="building.yes" color="255,230,230" fill="1" layer="-1.00" shape="2687.951836,736.640607 2684.191866,736.679559 2684.170418,733.848017 2673.025645,733.944472 2673.044118,736.365165 2671.703658,736.380696 2671.725848,739.156733 2673.066307,739.141201 2673.095304,742.039461 2684.332770,741.944236 2684.317134,739.945494 2687.975821,739.916301 2687.951836,736.640607"/>
    <poly id="281598254" type="building.yes" color="255,230,230" fill="1" layer="-1.00" shape="2522.302000,742.217353 2512.177010,742.327553 2512.241354,748.290696 2522.366335,748.180495 2522.302000,742.217353"/>
    <poly id="281598255" type="building.yes" color="255,230,230" fill="1" layer="-1.00" shape="2749.197953,739.251915 2749.210948,742.083345 2751.124496,742.075434 2751.147274,745.439937 2761.836492,745.370863 2761.792448,739.163716 2749.197953,739.251915"/>
    <poly id="281598256" type="building.yes" color="255,230,230" fill="1" layer="-1.00" shape="2803.304526,779.308079 2786.529498,779.374006 2786.563350,786.347124 2803.338510,786.270097 2803.304526,779.308079"/>
    <poly id="281598257" type="building.yes" color="255,230,230" fill="1" layer="-1.00" shape="2563.815946,741.590267 2552.654190,741.697781 2552.710514,747.627510 2563.872261,747.519997 2563.815946,741.590267"/>
    <poly id="281598258" type="building.yes" color="255,230,230" fill="1" layer="-1.00" shape="2522.366335,748.180495 2512.241354,748.290696 2512.311920,754.420465 2522.436893,754.310265 2522.366335,748.180495"/>
    <poly id="281598259" type="building.yes" color="255,230,230" fill="1" layer="-1.00" shape="2761.803955,748.457058 2750.894146,748.634234 2750.984759,754.508909 2761.894559,754.331733 2761.803955,748.457058"/>
    <poly id="281598260" type="building.yes" color="255,230,230" fill="1" layer="-1.00" shape="2607.631784,735.187071 2592.471569,735.519108 2592.570797,740.117051 2595.488132,740.055783 2595.542842,742.288204 2607.785856,742.006335 2607.631784,735.187071"/>
    <poly id="281598261" type="building.yes" color="255,230,230" fill="1" layer="-1.00" shape="2644.540135,747.523183 2643.351084,747.562933 2643.283801,745.008359 2631.908850,745.301676 2632.108795,753.109714 2643.239183,752.824257 2643.166122,750.069752 2644.599578,750.033242 2644.540135,747.523183"/>
    <poly id="281598262" type="building.yes" color="255,230,230" fill="1" layer="-1.00" shape="2786.563350,786.347124 2786.591132,793.142514 2803.366129,793.076588 2803.338510,786.270097 2786.563350,786.347124"/>
    <poly id="281598263" type="building.yes" color="255,230,230" fill="1" layer="-1.00" shape="2720.310058,718.983138 2709.636187,719.163507 2709.732135,724.638545 2720.406146,724.447075 2720.310058,718.983138"/>
    <poly id="281598264" type="building.yes" color="255,230,230" fill="1" layer="-1.00" shape="2563.872261,747.519997 2552.710514,747.627510 2552.712325,748.127168 2549.702729,748.153922 2549.750581,753.450669 2552.768749,753.412926 2552.764779,753.712654 2563.934945,753.605252 2563.872261,747.519997"/>
    <poly id="281598265" type="building.yes" color="255,230,230" fill="1" layer="-1.00" shape="2684.358341,744.464949 2680.107503,744.652835 2680.042219,743.219686 2676.255350,743.380418 2676.300358,744.435797 2673.205009,744.572393 2673.315892,747.016517 2671.241188,747.100032 2671.376214,750.266169 2673.130514,750.189508 2673.240220,752.722440 2684.693811,752.219272 2684.358341,744.464949"/>
    <poly id="281598266" type="building.yes" color="255,230,230" fill="1" layer="-1.00" shape="2524.986239,760.395138 2524.923817,754.287682 2522.436893,754.310265 2512.311920,754.420465 2512.374205,760.539022 2522.659444,760.419842 2524.986239,760.395138"/>
    <poly id="281598267" type="building.yes" color="255,230,230" fill="1" layer="-1.00" shape="2750.984759,754.508909 2751.087954,760.705738 2761.938750,760.527780 2761.936364,760.072526 2767.779158,759.972439 2767.686791,754.230975 2761.894559,754.331733 2750.984759,754.508909"/>
    <poly id="281598268" type="building.yes" color="255,230,230" fill="1" layer="-1.00" shape="2595.542842,742.288204 2595.574432,743.720905 2592.522107,743.791487 2592.570007,745.901686 2594.172019,745.867400 2594.240833,748.943833 2607.934000,748.636769 2607.785856,742.006335 2595.542842,742.288204"/>
    <poly id="281598269" type="building.yes" color="255,230,230" fill="1" layer="-1.00" shape="2803.354264,803.491023 2786.710449,803.836264 2786.850001,810.466594 2803.493802,810.121353 2803.354264,803.491023"/>
    <poly id="281598270" type="building.yes" color="255,230,230" fill="1" layer="-1.00" shape="2709.732135,724.638545 2709.826316,730.246795 2720.500171,730.066426 2720.406146,724.447075 2709.732135,724.638545"/>
    <poly id="281598271" type="building.yes" color="255,230,230" fill="1" layer="-1.00" shape="2563.934945,753.605252 2552.764779,753.712654 2552.825707,759.931121 2563.996011,759.812618 2563.934945,753.605252"/>
    <poly id="281598272" type="building.yes" color="255,230,230" fill="1" layer="-1.00" shape="2522.659444,760.419842 2512.374205,760.539022 2512.445653,766.602186 2522.722456,766.482894 2522.659444,760.419842"/>
    <poly id="281598273" type="building.yes" color="255,230,230" fill="1" layer="-1.00" shape="2762.100199,763.605447 2751.216727,763.705250 2751.269944,769.857004 2762.153407,769.757201 2762.100199,763.605447"/>
    <poly id="281598274" type="building.yes" color="255,230,230" fill="1" layer="-1.00" shape="2643.513935,760.711007 2644.786821,760.705677 2644.790493,757.885572 2643.458613,757.890120 2643.453013,755.769378 2632.351740,755.766543 2632.352792,760.773996 2634.637155,760.770970 2634.635987,763.402358 2643.511882,763.409001 2643.513935,760.711007"/>
    <poly id="281598275" type="building.yes" color="255,230,230" fill="1" layer="-1.00" shape="2786.850001,810.466594 2786.999039,817.652198 2803.642823,817.306958 2803.493802,810.121353 2786.850001,810.466594"/>
    <poly id="281598276" type="building.yes" color="255,230,230" fill="1" layer="-1.00" shape="2720.448094,735.261926 2709.607163,735.329048 2709.645442,740.703394 2720.486365,740.636272 2720.448094,735.261926"/>
    <poly id="281598277" type="building.yes" color="255,230,230" fill="1" layer="-1.00" shape="2563.996011,759.812618 2552.825707,759.931121 2552.885900,766.205093 2564.056047,766.097692 2563.996011,759.812618"/>
    <poly id="281598278" type="building.yes" color="255,230,230" fill="1" layer="-1.00" shape="2684.503535,755.125727 2673.391622,755.289234 2673.422055,757.443613 2672.157449,757.460151 2672.202860,760.391937 2673.459038,760.375288 2673.506215,763.173862 2684.618116,763.010356 2684.503535,755.125727"/>
    <poly id="281598279" type="building.yes" color="255,230,230" fill="1" layer="-1.00" shape="2522.722456,766.482894 2512.445653,766.602186 2512.508231,772.698541 2522.793306,772.590462 2522.722456,766.482894"/>
    <poly id="281598280" type="building.yes" color="255,230,230" fill="1" layer="-1.00" shape="2751.269944,769.857004 2751.325371,775.842243 2762.208825,775.742439 2762.153407,769.757201 2751.269944,769.857004"/>
    <poly id="281598281" type="building.yes" color="255,230,230" fill="1" layer="-1.00" shape="2611.243998,761.560080 2611.081355,754.751805 2595.878747,755.105478 2595.918765,756.538291 2592.520760,756.615395 2592.634047,761.424481 2594.151778,761.389078 2594.160985,761.966554 2609.920252,761.586947 2611.243998,761.560080"/>
    <poly id="281598282" type="building.yes" color="255,230,230" fill="1" layer="-1.00" shape="2644.808002,768.644581 2643.593818,768.672895 2643.549023,766.329575 2632.529394,766.527675 2632.616783,771.380830 2634.488625,771.339027 2634.535817,774.137601 2643.473047,773.967410 2643.428841,771.579685 2644.862146,771.554277 2644.808002,768.644581"/>
    <poly id="281598283" type="building.yes" color="255,230,230" fill="1" layer="-1.00" shape="2803.644126,827.999143 2787.035403,828.244921 2787.131636,834.963499 2803.748771,834.717834 2803.644126,827.999143"/>
    <poly id="281598284" type="building.yes" color="255,230,230" fill="1" layer="-1.00" shape="2709.645442,740.703394 2709.681659,746.233155 2720.522574,746.166033 2720.486365,740.636272 2709.645442,740.703394"/>
    <poly id="281598286" type="building.yes" color="255,230,230" fill="1" layer="-1.00" shape="2564.056047,766.097692 2552.885900,766.205093 2552.943105,772.068216 2564.113243,771.960815 2564.056047,766.097692"/>
    <poly id="281598287" type="building.yes" color="255,230,230" fill="1" layer="-1.00" shape="2684.681183,767.152600 2689.073513,767.099831 2689.041577,764.423591 2685.222628,764.461760 2685.239259,765.749925 2673.445009,765.882175 2673.476214,768.613920 2671.183131,768.639023 2671.211208,770.971020 2673.504291,770.945916 2673.540390,773.944196 2684.752966,773.815335 2684.681183,767.152600"/>
    <poly id="281598288" type="building.yes" color="255,230,230" fill="1" layer="-1.00" shape="2522.793306,772.590462 2512.508231,772.698541 2512.577620,778.917119 2522.862687,778.809040 2522.793306,772.590462"/>
    <poly id="281598289" type="building.yes" color="255,230,230" fill="1" layer="-1.00" shape="2765.265834,784.843047 2765.139931,779.722904 2762.357305,779.796996 2762.329607,778.708537 2751.064404,778.992024 2751.218017,785.200625 2762.483210,784.917139 2765.265834,784.843047"/>
    <poly id="281598290" type="building.yes" color="255,230,230" fill="1" layer="-1.00" shape="2787.131636,834.963499 2787.233496,841.893109 2803.850615,841.647444 2803.748771,834.717834 2787.131636,834.963499"/>
    <poly id="281598291" type="building.yes" color="255,230,230" fill="1" layer="-1.00" shape="2720.465456,751.106098 2709.882716,751.409807 2710.024926,756.574575 2720.616086,756.270978 2720.465456,751.106098"/>
    <poly id="281598292" type="building.yes" color="255,230,230" fill="1" layer="-1.00" shape="2553.007268,778.042461 2564.168969,777.934948 2564.113243,771.960815 2552.943105,772.068216 2552.968527,773.967160 2553.007268,778.042461"/>
    <poly id="281598294" type="building.yes" color="255,230,230" fill="1" layer="-1.00" shape="2522.862687,778.809040 2512.577620,778.917119 2512.643285,784.780353 2522.919915,784.672163 2522.862687,778.809040"/>
    <poly id="281598295" type="building.yes" color="255,230,230" fill="1" layer="-1.00" shape="2751.218017,785.200625 2751.360667,790.964962 2762.625852,790.681476 2762.483210,784.917139 2751.218017,785.200625"/>
    <poly id="281598296" type="building.yes" color="255,230,230" fill="1" layer="-1.00" shape="2644.946884,779.149831 2643.774988,779.167602 2643.720293,776.935180 2632.564953,777.198099 2632.749365,784.906004 2643.576012,784.638728 2643.522642,782.306397 2645.023514,782.270781 2644.946884,779.149831"/>
    <poly id="281598298" type="building.yes" color="255,230,230" fill="1" layer="-1.00" shape="2804.229687,852.455676 2787.343348,852.664455 2787.423756,859.305103 2804.310079,859.096324 2804.229687,852.455676"/>
    <poly id="281598299" type="building.yes" color="255,230,230" fill="1" layer="-1.00" shape="2710.024926,756.574575 2710.187853,762.083811 2720.770577,761.780102 2720.616086,756.270978 2710.024926,756.574575"/>
    <poly id="281598300" type="building.yes" color="255,230,230" fill="1" layer="-1.00" shape="2564.231651,784.020204 2564.168969,777.934948 2553.007268,778.042461 2549.078768,778.079249 2549.133035,784.164392 2553.137381,784.128609 2564.231651,784.020204"/>
    <poly id="281598301" type="building.yes" color="255,230,230" fill="1" layer="-1.00" shape="2684.766722,776.591260 2673.622161,776.676612 2673.642693,778.941890 2672.285534,778.946097 2672.317069,782.288509 2673.665801,782.284190 2673.693583,784.638389 2684.838279,784.541936 2684.766722,776.591260"/>
    <poly id="281598302" type="building.yes" color="255,230,230" fill="1" layer="-1.00" shape="2522.919915,784.672163 2512.643285,784.780353 2512.713555,790.932325 2522.990324,790.813034 2522.919915,784.672163"/>
    <poly id="281598303" type="building.yes" color="255,230,230" fill="1" layer="-1.00" shape="2762.570121,794.244791 2751.638191,794.188508 2751.627730,794.976680 2749.562644,794.971477 2749.546083,798.124502 2751.729156,798.131271 2751.716100,800.385002 2762.538461,800.439831 2762.570121,794.244791"/>
    <poly id="281598304" type="building.yes" color="255,230,230" fill="1" layer="-1.00" shape="2600.641907,768.414439 2593.996725,768.637261 2594.273778,776.990363 2600.918953,776.767541 2600.641907,768.414439"/>
    <poly id="281598305" type="building.yes" color="255,230,230" fill="1" layer="-1.00" shape="2787.423756,859.305103 2787.508022,866.289995 2804.394329,866.081216 2804.310079,859.096324 2787.423756,859.305103"/>
    <poly id="281598306" type="building.yes" color="255,230,230" fill="1" layer="-1.00" shape="2720.692331,767.041873 2709.932779,767.332132 2710.071454,772.763325 2720.830850,772.484167 2720.692331,767.041873"/>
    <poly id="281598307" type="building.yes" color="255,230,230" fill="1" layer="-1.00" shape="2564.231651,784.020204 2553.137381,784.128609 2553.191644,790.213753 2564.294333,790.105459 2564.231651,784.020204"/>
    <poly id="281598308" type="building.yes" color="255,230,230" fill="1" layer="-1.00" shape="2522.990324,790.813034 2512.713555,790.932325 2512.775838,797.050882 2523.060879,796.942804 2522.990324,790.813034"/>
    <poly id="281598309" type="building.yes" color="255,230,230" fill="1" layer="-1.00" shape="2751.716100,800.385002 2751.704961,802.494419 2749.589311,802.488544 2749.572013,805.697074 2751.687514,805.714050 2751.678084,806.424515 2762.508864,806.479456 2762.538461,800.439831 2751.716100,800.385002"/>
    <poly id="281598310" type="building.yes" color="255,230,230" fill="1" layer="-1.00" shape="2645.044106,790.254089 2643.518394,790.256067 2643.511285,787.613466 2632.493894,787.645050 2632.514205,795.650560 2643.750704,795.621881 2643.738846,792.701643 2645.053865,792.696872 2645.044106,790.254089"/>
    <poly id="281598311" type="building.yes" color="255,230,230" fill="1" layer="-1.00" shape="2804.389264,876.617875 2787.662222,876.895386 2787.767616,883.558572 2804.503071,883.281173 2804.389264,876.617875"/>
    <poly id="281598312" type="building.yes" color="255,230,230" fill="1" layer="-1.00" shape="2710.071454,772.763325 2710.224332,778.394561 2720.975440,778.104190 2720.830850,772.484167 2710.071454,772.763325"/>
    <poly id="281598313" type="building.yes" color="255,230,230" fill="1" layer="-1.00" shape="2564.294333,790.105459 2553.191644,790.213753 2553.260410,796.476736 2564.354662,796.368331 2564.294333,790.105459"/>
    <poly id="281598318" type="building.yes" color="255,230,230" fill="1" layer="-1.00" shape="2684.938079,787.185767 2673.788823,787.626351 2673.889363,790.214676 2672.624321,790.264517 2672.725009,792.841741 2673.990050,792.791901 2674.096367,795.580157 2685.254039,795.139685 2684.938079,787.185767"/>
    <poly id="281598320" type="building.yes" color="255,230,230" fill="1" layer="-1.00" shape="2523.060879,796.942804 2512.775838,797.050882 2512.840032,803.025127 2523.125065,802.917049 2523.060879,796.942804"/>
    <poly id="281598321" type="building.yes" color="255,230,230" fill="1" layer="-1.00" shape="2762.437429,809.320870 2751.661669,809.566439 2751.677522,810.277240 2751.281273,810.283084 2751.292971,810.671843 2751.183411,810.670389 2751.292909,815.757005 2762.574469,815.507046 2762.437429,809.320870"/>
    <poly id="281598322" type="building.yes" color="255,230,230" fill="1" layer="-1.00" shape="2606.505420,789.010430 2606.604393,780.906576 2594.215481,780.753496 2594.116522,788.857350 2600.926268,788.936490 2606.505420,789.010430"/>
    <poly id="281598323" type="building.yes" color="255,230,230" fill="1" layer="-1.00" shape="2787.767616,883.558572 2787.891513,890.732740 2804.618524,890.455231 2804.503071,883.281173 2787.767616,883.558572"/>
    <poly id="281598324" type="building.yes" color="255,230,230" fill="1" layer="-1.00" shape="2720.990603,782.678816 2710.030281,782.855381 2710.123723,788.519136 2721.075462,788.353561 2720.990603,782.678816"/>