<?xml version="1.0" encoding="UTF-8"?>
<net version="1.3" junctionCornerDetail="5" limitTurnSpeed="5.50" xmlns:xsi="http://www.w3.org/2001/XMLSchema-instance" xsi:noNamespaceSchemaLocation="http://sumo.dlr.de/xsd/net_file.xsd">

    <location netOffset="-595192.81,-4523472.41" convBoundary="2187.67,131.91,2657.21,695.47" origBoundary="-73.870462,40.856437,-73.830184,40.875003" projParameter="+proj=utm +zone=18 +ellps=WGS84 +datum=WGS84 +units=m +no_defs"/>

    <type id="highway.bridleway" priority="1" numLanes="1" speed="2.78" allow="pedestrian" oneway="1" width="2.00"/>
    <type id="highway.bus_guideway" priority="1" numLanes="1" speed="27.78" allow="bus" oneway="1"/>
    <type id="highway.cycleway" priority="1" numLanes="1" speed="8.33" allow="bicycle" oneway="0" width="1.00"/>
    <type id="highway.footway" priority="1" numLanes="1" speed="2.78" allow="pedestrian" oneway="1" width="2.00"/>
    <type id="highway.ford" priority="1" numLanes="1" speed="2.78" allow="army" oneway="0"/>
    <type id="highway.living_street" priority="2" numLanes="1" speed="2.78" disallow="tram rail_urban rail rail_electric rail_fast ship" oneway="0"/>
    <type id="highway.motorway" priority="14" numLanes="2" speed="39.44" allow="private emergency authority army vip passenger hov taxi bus coach delivery truck trailer motorcycle evehicle custom1 custom2" oneway="1"/>
    <type id="highway.motorway_link" priority="9" numLanes="1" speed="22.22" allow="private emergency authority army vip passenger hov taxi bus coach delivery truck trailer motorcycle evehicle custom1 custom2" oneway="1"/>
    <type id="highway.path" priority="1" numLanes="1" speed="2.78" allow="pedestrian bicycle" oneway="1" width="2.00"/>
    <type id="highway.pedestrian" priority="1" numLanes="1" speed="2.78" allow="pedestrian" oneway="1" width="2.00"/>
    <type id="highway.primary" priority="12" numLanes="2" speed="27.78" disallow="tram rail_urban rail rail_electric rail_fast ship" oneway="0"/>
    <type id="highway.primary_link" priority="7" numLanes="1" speed="22.22" disallow="tram rail_urban rail rail_electric rail_fast ship" oneway="0"/>
    <type id="highway.raceway" priority="15" numLanes="2" speed="83.33" allow="vip" oneway="0"/>
    <type id="highway.residential" priority="3" numLanes="1" speed="13.89" disallow="tram rail_urban rail rail_electric rail_fast ship" oneway="0"/>
    <type id="highway.secondary" priority="11" numLanes="1" speed="27.78" disallow="tram rail_urban rail rail_electric rail_fast ship" oneway="0"/>
    <type id="highway.secondary_link" priority="6" numLanes="1" speed="22.22" disallow="tram rail_urban rail rail_electric rail_fast ship" oneway="0"/>
    <type id="highway.service" priority="1" numLanes="1" speed="5.56" allow="pedestrian delivery bicycle" oneway="0"/>
    <type id="highway.stairs" priority="1" numLanes="1" speed="1.39" allow="pedestrian" oneway="1" width="2.00"/>
    <type id="highway.step" priority="1" numLanes="1" speed="1.39" allow="pedestrian" oneway="1" width="2.00"/>
    <type id="highway.steps" priority="1" numLanes="1" speed="1.39" allow="pedestrian" oneway="1" width="2.00"/>
    <type id="highway.tertiary" priority="10" numLanes="1" speed="22.22" disallow="tram rail_urban rail rail_electric rail_fast ship" oneway="0"/>
    <type id="highway.tertiary_link" priority="5" numLanes="1" speed="22.22" disallow="tram rail_urban rail rail_electric rail_fast ship" oneway="0"/>
    <type id="highway.track" priority="1" numLanes="1" speed="5.56" disallow="tram rail_urban rail rail_electric rail_fast ship" oneway="0"/>
    <type id="highway.trunk" priority="13" numLanes="2" speed="27.78" disallow="pedestrian bicycle tram rail_urban rail rail_electric rail_fast ship" oneway="0"/>
    <type id="highway.trunk_link" priority="8" numLanes="1" speed="22.22" disallow="pedestrian bicycle tram rail_urban rail rail_electric rail_fast ship" oneway="0"/>
    <type id="highway.unclassified" priority="4" numLanes="1" speed="13.89" disallow="tram rail_urban rail rail_electric rail_fast ship" oneway="0"/>
    <type id="highway.unsurfaced" priority="1" numLanes="1" speed="8.33" disallow="tram rail_urban rail rail_electric rail_fast ship" oneway="0"/>
    <type id="railway.highspeed" priority="21" numLanes="1" speed="69.44" allow="rail_fast" oneway="1"/>
    <type id="railway.light_rail" priority="19" numLanes="1" speed="27.78" allow="rail_urban" oneway="1"/>
    <type id="railway.preserved" priority="16" numLanes="1" speed="27.78" allow="rail" oneway="1"/>
    <type id="railway.rail" priority="20" numLanes="1" speed="44.44" allow="rail" oneway="1"/>
    <type id="railway.subway" priority="18" numLanes="1" speed="27.78" allow="rail_urban" oneway="1"/>
    <type id="railway.tram" priority="17" numLanes="1" speed="13.89" allow="tram" oneway="1"/>

    <edge id=":Astor_Eastchester_0" function="internal">
        <lane id=":Astor_Eastchester_0_0" index="0" disallow="tram rail_urban rail rail_electric rail_fast ship" speed="7.76" length="11.11" shape="2327.46,333.25 2324.65,333.93 2322.52,335.36 2321.09,337.55 2320.35,340.50"/>
    </edge>
    <edge id=":Astor_Eastchester_1" function="internal">
        <lane id=":Astor_Eastchester_1_0" index="0" disallow="tram rail_urban rail rail_electric rail_fast ship" speed="13.89" length="15.61" shape="2327.46,333.25 2311.92,334.75"/>
    </edge>
    <edge id=":Astor_Eastchester_2" function="internal">
        <lane id=":Astor_Eastchester_2_0" index="0" disallow="tram rail_urban rail rail_electric rail_fast ship" speed="7.79" length="5.96" shape="2327.46,333.25 2323.36,333.05 2321.71,332.20"/>
    </edge>
    <edge id=":Astor_Eastchester_12" function="internal">
        <lane id=":Astor_Eastchester_12_0" index="0" disallow="tram rail_urban rail rail_electric rail_fast ship" speed="7.79" length="8.74" shape="2321.71,332.20 2320.48,331.56 2318.81,328.78 2318.35,324.70"/>
    </edge>
    <edge id=":Astor_Eastchester_3" function="internal">
        <lane id=":Astor_Eastchester_3_0" index="0" disallow="tram rail_urban rail rail_electric rail_fast ship" speed="6.25" length="9.04" shape="2321.55,324.80 2321.83,327.31 2322.86,329.02 2324.63,329.94 2327.15,330.06"/>
    </edge>
    <edge id=":Astor_Eastchester_4" function="internal">
        <lane id=":Astor_Eastchester_4_0" index="0" disallow="tram rail_urban rail rail_electric rail_fast ship" speed="27.78" length="15.75" shape="2321.55,324.80 2321.38,328.66 2321.11,332.66 2320.77,336.66 2320.35,340.50"/>
    </edge>
    <edge id=":Astor_Eastchester_5" function="internal">
        <lane id=":Astor_Eastchester_5_0" index="0" disallow="tram rail_urban rail rail_electric rail_fast ship" speed="8.72" length="6.37" shape="2321.55,324.80 2320.84,328.81 2319.64,330.77"/>
    </edge>
    <edge id=":Astor_Eastchester_13" function="internal">
        <lane id=":Astor_Eastchester_13_0" index="0" disallow="tram rail_urban rail rail_electric rail_fast ship" speed="8.72" length="9.01" shape="2319.64,330.77 2319.00,331.81 2316.03,333.79 2311.92,334.75"/>
    </edge>
    <edge id=":Astor_Eastchester_6" function="internal">
        <lane id=":Astor_Eastchester_6_0" index="0" disallow="tram rail_urban rail rail_electric rail_fast ship" speed="7.36" length="10.69" shape="2311.61,331.57 2314.48,330.90 2316.57,329.53 2317.85,327.46 2318.35,324.70"/>
    </edge>
    <edge id=":Astor_Eastchester_7" function="internal">
        <lane id=":Astor_Eastchester_7_0" index="0" disallow="tram rail_urban rail rail_electric rail_fast ship" speed="13.89" length="15.62" shape="2311.61,331.57 2327.15,330.06"/>
    </edge>
    <edge id=":Astor_Eastchester_8" function="internal">
        <lane id=":Astor_Eastchester_8_0" index="0" disallow="tram rail_urban rail rail_electric rail_fast ship" speed="7.67" length="6.06" shape="2311.61,331.57 2315.88,331.76 2317.45,332.61"/>
    </edge>
    <edge id=":Astor_Eastchester_14" function="internal">
        <lane id=":Astor_Eastchester_14_0" index="0" disallow="tram rail_urban rail rail_electric rail_fast ship" speed="7.67" length="9.03" shape="2317.45,332.61 2318.76,333.31 2320.25,336.23 2320.35,340.50"/>
    </edge>
    <edge id=":Astor_Eastchester_9" function="internal">
        <lane id=":Astor_Eastchester_9_0" index="0" disallow="tram rail_urban rail rail_electric rail_fast ship" speed="6.09" length="9.07" shape="2317.17,340.12 2317.11,337.55 2316.22,335.80 2314.49,334.87 2311.92,334.75"/>
    </edge>
    <edge id=":Astor_Eastchester_10" function="internal">
        <lane id=":Astor_Eastchester_10_0" index="0" disallow="tram rail_urban rail rail_electric rail_fast ship" speed="27.78" length="15.47" shape="2317.17,340.12 2317.58,336.32 2317.92,332.42 2318.18,328.52 2318.35,324.70"/>
    </edge>
    <edge id=":Astor_Eastchester_11" function="internal">
        <lane id=":Astor_Eastchester_11_0" index="0" disallow="tram rail_urban rail rail_electric rail_fast ship" speed="9.07" length="6.31" shape="2317.17,340.12 2318.21,336.04 2319.36,334.29"/>
    </edge>
    <edge id=":Astor_Eastchester_15" function="internal">
        <lane id=":Astor_Eastchester_15_0" index="0" disallow="tram rail_urban rail rail_electric rail_fast ship" speed="9.07" length="9.20" shape="2319.36,334.29 2320.22,333.00 2323.20,331.01 2327.15,330.06"/>
    </edge>
    <edge id=":Astor_Fenton_0" function="internal">
        <lane id=":Astor_Fenton_0_0" index="0" disallow="tram rail_urban rail rail_electric rail_fast ship" speed="13.89" length="14.37" shape="2188.59,352.03 2188.40,337.67"/>
    </edge>
    <edge id=":Astor_Fenton_1" function="internal">
        <lane id=":Astor_Fenton_1_0" index="0" disallow="tram rail_urban rail rail_electric rail_fast ship" speed="8.31" length="5.72" shape="2188.59,352.03 2189.12,348.31 2190.12,346.62"/>
    </edge>
    <edge id=":Astor_Fenton_6" function="internal">
        <lane id=":Astor_Fenton_6_0" index="0" disallow="tram rail_urban rail rail_electric rail_fast ship" speed="8.31" length="8.58" shape="2190.12,346.62 2190.76,345.53 2193.53,343.68 2197.41,342.78"/>
    </edge>
    <edge id=":Astor_Fenton_2" function="internal">
        <lane id=":Astor_Fenton_2_0" index="0" disallow="tram rail_urban rail rail_electric rail_fast ship" speed="6.87" length="9.48" shape="2197.72,345.96 2195.11,346.56 2193.25,347.77 2192.14,349.58 2191.79,352.01"/>
    </edge>
    <edge id=":Astor_Fenton_3" function="internal">
        <lane id=":Astor_Fenton_3_0" index="0" disallow="tram rail_urban rail rail_electric rail_fast ship" speed="7.87" length="14.50" shape="2197.72,345.96 2193.71,345.78 2190.82,344.34 2189.05,341.63 2188.40,337.67"/>
    </edge>
    <edge id=":Astor_Fenton_4" function="internal">
        <lane id=":Astor_Fenton_4_0" index="0" disallow="tram rail_urban rail rail_electric rail_fast ship" speed="6.34" length="9.04" shape="2191.60,337.61 2192.00,340.08 2193.11,341.77 2194.91,342.67 2197.41,342.78"/>
    </edge>
    <edge id=":Astor_Fenton_5" function="internal">
        <lane id=":Astor_Fenton_5_0" index="0" disallow="tram rail_urban rail rail_electric rail_fast ship" speed="13.89" length="14.40" shape="2191.60,337.61 2191.79,352.01"/>
    </edge>
    <edge id=":Astor_Kingsland_0" function="internal">
        <lane id=":Astor_Kingsland_0_0" index="0" disallow="tram rail_urban rail rail_electric rail_fast ship" speed="6.36" length="9.04" shape="2651.12,309.52 2650.73,307.05 2649.63,305.36 2647.84,304.44 2645.34,304.29"/>
    </edge>
    <edge id=":Astor_Kingsland_1" function="internal">
        <lane id=":Astor_Kingsland_1_0" index="0" disallow="tram rail_urban rail rail_electric rail_fast ship" speed="13.89" length="14.41" shape="2651.12,309.52 2650.92,295.11"/>
    </edge>
    <edge id=":Astor_Kingsland_2" function="internal">
        <lane id=":Astor_Kingsland_2_0" index="0" disallow="tram rail_urban rail rail_electric rail_fast ship" speed="13.89" length="14.40" shape="2654.12,295.07 2654.32,309.47"/>
    </edge>
    <edge id=":Astor_Kingsland_3" function="internal">
        <lane id=":Astor_Kingsland_3_0" index="0" disallow="tram rail_urban rail rail_electric rail_fast ship" speed="8.24" length="5.79" shape="2654.12,295.07 2653.61,298.82 2652.60,300.56"/>
    </edge>
    <edge id=":Astor_Kingsland_6" function="internal">
        <lane id=":Astor_Kingsland_6_0" index="0" disallow="tram rail_urban rail rail_electric rail_fast ship" speed="8.24" length="8.50" shape="2652.60,300.56 2651.98,301.61 2649.22,303.43 2645.34,304.29"/>
    </edge>
    <edge id=":Astor_Kingsland_4" function="internal">
        <lane id=":Astor_Kingsland_4_0" index="0" disallow="tram rail_urban rail rail_electric rail_fast ship" speed="6.80" length="9.40" shape="2645.07,301.10 2647.66,300.54 2649.49,299.35 2650.58,297.55 2650.92,295.11"/>
    </edge>
    <edge id=":Astor_Kingsland_5" function="internal">
        <lane id=":Astor_Kingsland_5_0" index="0" disallow="tram rail_urban rail rail_electric rail_fast ship" speed="7.88" length="14.46" shape="2645.07,301.10 2649.07,301.34 2651.94,302.81 2653.69,305.52 2654.32,309.47"/>
    </edge>
    <edge id=":Astor_Westervelt_0" function="internal">
        <lane id=":Astor_Westervelt_0_0" index="0" disallow="tram rail_urban rail rail_electric rail_fast ship" speed="13.89" length="14.42" shape="2571.99,315.76 2571.80,301.34"/>
    </edge>
    <edge id=":Astor_Westervelt_1" function="internal">
        <lane id=":Astor_Westervelt_1_0" index="0" disallow="tram rail_urban rail rail_electric rail_fast ship" speed="8.24" length="5.80" shape="2571.99,315.76 2572.50,312.01 2573.52,310.27"/>
    </edge>
    <edge id=":Astor_Westervelt_6" function="internal">
        <lane id=":Astor_Westervelt_6_0" index="0" disallow="tram rail_urban rail rail_electric rail_fast ship" speed="8.24" length="8.50" shape="2573.52,310.27 2574.13,309.22 2576.89,307.40 2580.78,306.54"/>
    </edge>
    <edge id=":Astor_Westervelt_2" function="internal">
        <lane id=":Astor_Westervelt_2_0" index="0" disallow="tram rail_urban rail rail_electric rail_fast ship" speed="6.80" length="9.41" shape="2581.05,309.73 2578.46,310.29 2576.62,311.48 2575.53,313.28 2575.19,315.72"/>
    </edge>
    <edge id=":Astor_Westervelt_3" function="internal">
        <lane id=":Astor_Westervelt_3_0" index="0" disallow="tram rail_urban rail rail_electric rail_fast ship" speed="7.88" length="14.47" shape="2581.05,309.73 2577.05,309.49 2574.17,308.02 2572.43,305.30 2571.80,301.34"/>
    </edge>
    <edge id=":Astor_Westervelt_4" function="internal">
        <lane id=":Astor_Westervelt_4_0" index="0" disallow="tram rail_urban rail rail_electric rail_fast ship" speed="6.36" length="9.04" shape="2575.00,301.30 2575.39,303.77 2576.48,305.47 2578.28,306.39 2580.78,306.54"/>
    </edge>
    <edge id=":Astor_Westervelt_5" function="internal">
        <lane id=":Astor_Westervelt_5_0" index="0" disallow="tram rail_urban rail rail_electric rail_fast ship" speed="13.89" length="14.42" shape="2575.00,301.30 2575.19,315.72"/>
    </edge>
    <edge id=":Astor_Woodhull_0" function="internal">
        <lane id=":Astor_Woodhull_0_0" index="0" disallow="tram rail_urban rail rail_electric rail_fast ship" speed="6.33" length="9.04" shape="2414.14,330.71 2413.76,328.23 2412.67,326.54 2410.87,325.64 2408.37,325.52"/>
    </edge>
    <edge id=":Astor_Woodhull_1" function="internal">
        <lane id=":Astor_Woodhull_1_0" index="0" disallow="tram rail_urban rail rail_electric rail_fast ship" speed="13.89" length="14.43" shape="2414.14,330.71 2413.98,316.28"/>
    </edge>
    <edge id=":Astor_Woodhull_2" function="internal">
        <lane id=":Astor_Woodhull_2_0" index="0" disallow="tram rail_urban rail rail_electric rail_fast ship" speed="13.89" length="14.44" shape="2417.18,316.24 2417.34,330.68"/>
    </edge>
    <edge id=":Astor_Woodhull_3" function="internal">
        <lane id=":Astor_Woodhull_3_0" index="0" disallow="tram rail_urban rail rail_electric rail_fast ship" speed="8.29" length="5.80" shape="2417.18,316.24 2416.67,319.98 2415.64,321.73"/>
    </edge>
    <edge id=":Astor_Woodhull_6" function="internal">
        <lane id=":Astor_Woodhull_6_0" index="0" disallow="tram rail_urban rail rail_electric rail_fast ship" speed="8.29" length="8.53" shape="2415.64,321.73 2415.03,322.77 2412.26,324.62 2408.37,325.52"/>
    </edge>
    <edge id=":Astor_Woodhull_4" function="internal">
        <lane id=":Astor_Woodhull_4_0" index="0" disallow="tram rail_urban rail rail_electric rail_fast ship" speed="6.85" length="9.48" shape="2408.06,322.33 2410.68,321.74 2412.54,320.53 2413.64,318.71 2413.98,316.28"/>
    </edge>
    <edge id=":Astor_Woodhull_5" function="internal">
        <lane id=":Astor_Woodhull_5_0" index="0" disallow="tram rail_urban rail rail_electric rail_fast ship" speed="7.85" length="14.53" shape="2408.06,322.33 2412.09,322.52 2414.98,323.98 2416.73,326.70 2417.34,330.68"/>
    </edge>
    <edge id=":Eastchester_Mace_0" function="internal">
        <lane id=":Eastchester_Mace_0_0" index="0" disallow="tram rail_urban rail rail_electric rail_fast ship" speed="13.89" length="14.44" shape="2286.22,696.01 2271.77,696.18"/>
    </edge>
    <edge id=":Eastchester_Mace_1" function="internal">
        <lane id=":Eastchester_Mace_1_0" index="0" disallow="tram rail_urban rail rail_electric rail_fast ship" speed="7.80" length="5.97" shape="2286.22,696.01 2282.16,695.48 2280.57,694.48"/>
    </edge>
    <edge id=":Eastchester_Mace_6" function="internal">
        <lane id=":Eastchester_Mace_6_0" index="0" disallow="tram rail_urban rail rail_electric rail_fast ship" speed="7.80" length="8.70" shape="2280.57,694.48 2279.41,693.75 2277.97,690.85 2277.82,686.76"/>
    </edge>
    <edge id=":Eastchester_Mace_2" function="internal">
        <lane id=":Eastchester_Mace_2_0" index="0" disallow="tram rail_urban rail rail_electric rail_fast ship" speed="6.26" length="9.04" shape="2281.01,687.11 2281.09,689.63 2281.98,691.42 2283.68,692.48 2286.18,692.81"/>
    </edge>
    <edge id=":Eastchester_Mace_3" function="internal">
        <lane id=":Eastchester_Mace_3_0" index="0" disallow="tram rail_urban rail rail_electric rail_fast ship" speed="8.43" length="14.39" shape="2281.01,687.11 2280.06,691.04 2278.21,693.86 2275.45,695.58 2271.77,696.18"/>
    </edge>
    <edge id=":Eastchester_Mace_4" function="internal">
        <lane id=":Eastchester_Mace_4_0" index="0" disallow="tram rail_urban rail rail_electric rail_fast ship" speed="7.01" length="9.67" shape="2271.74,692.98 2274.15,692.57 2275.97,691.39 2277.19,689.46 2277.82,686.76"/>
    </edge>
    <edge id=":Eastchester_Mace_5" function="internal">
        <lane id=":Eastchester_Mace_5_0" index="0" disallow="tram rail_urban rail rail_electric rail_fast ship" speed="13.89" length="14.45" shape="2271.74,692.98 2286.18,692.81"/>
    </edge>
    <edge id=":Eastchester_Pelham_0" function="internal">
        <lane id=":Eastchester_Pelham_0_0" index="0" disallow="tram rail_urban rail rail_electric rail_fast ship" speed="7.20" length="9.85" shape="2297.20,203.77 2296.02,201.18 2294.42,199.44 2292.40,198.55 2289.97,198.51"/>
    </edge>
    <edge id=":Eastchester_Pelham_1" function="internal">
        <lane id=":Eastchester_Pelham_1_0" index="0" disallow="tram rail_urban rail rail_electric rail_fast ship" speed="6.23" length="9.05" shape="2304.21,196.23 2301.81,197.02 2300.34,198.37 2299.82,200.30 2300.24,202.79"/>
    </edge>
    <edge id=":Eastchester_Pelham_2" function="internal">
        <lane id=":Eastchester_Pelham_2_0" index="0" disallow="tram rail_urban rail rail_electric rail_fast ship" speed="12.54" length="14.43" shape="2304.21,196.23 2289.97,198.51"/>
    </edge>
    <edge id=":Eastchester_Waring_0" function="internal">
        <lane id=":Eastchester_Waring_0_0" index="0" disallow="tram rail_urban rail rail_electric rail_fast ship" speed="7.23" length="10.34" shape="2308.89,488.51 2306.13,488.93 2304.06,490.10 2302.68,492.04 2302.00,494.74"/>
    </edge>
    <edge id=":Eastchester_Waring_1" function="internal">
        <lane id=":Eastchester_Waring_1_0" index="0" disallow="tram rail_urban rail rail_electric rail_fast ship" speed="13.89" length="15.25" shape="2308.89,488.51 2293.64,488.68"/>
    </edge>
    <edge id=":Eastchester_Waring_2" function="internal">
        <lane id=":Eastchester_Waring_2_0" index="0" disallow="tram rail_urban rail rail_electric rail_fast ship" speed="7.79" length="5.98" shape="2308.89,488.51 2304.82,487.97 2303.24,486.98"/>
    </edge>
    <edge id=":Eastchester_Waring_12" function="internal">
        <lane id=":Eastchester_Waring_12_0" index="0" disallow="tram rail_urban rail rail_electric rail_fast ship" speed="7.79" length="8.73" shape="2303.24,486.98 2302.07,486.24 2300.65,483.33 2300.55,479.22"/>
    </edge>
    <edge id=":Eastchester_Waring_3" function="internal">
        <lane id=":Eastchester_Waring_3_0" index="0" disallow="tram rail_urban rail rail_electric rail_fast ship" speed="6.24" length="9.05" shape="2303.72,479.60 2303.79,482.12 2304.66,483.92 2306.35,484.98 2308.86,485.31"/>
    </edge>
    <edge id=":Eastchester_Waring_4" function="internal">
        <lane id=":Eastchester_Waring_4_0" index="0" disallow="tram rail_urban rail rail_electric rail_fast ship" speed="27.78" length="15.24" shape="2303.72,479.60 2302.00,494.74"/>
    </edge>
    <edge id=":Eastchester_Waring_5" function="internal">
        <lane id=":Eastchester_Waring_5_0" index="0" disallow="tram rail_urban rail rail_electric rail_fast ship" speed="8.64" length="6.17" shape="2303.72,479.60 2302.69,483.54 2301.47,485.24"/>
    </edge>
    <edge id=":Eastchester_Waring_13" function="internal">
        <lane id=":Eastchester_Waring_13_0" index="0" disallow="tram rail_urban rail rail_electric rail_fast ship" speed="8.64" length="8.90" shape="2301.47,485.24 2300.67,486.36 2297.65,488.08 2293.64,488.68"/>
    </edge>
    <edge id=":Eastchester_Waring_6" function="internal">
        <lane id=":Eastchester_Waring_6_0" index="0" disallow="tram rail_urban rail rail_electric rail_fast ship" speed="7.27" length="10.38" shape="2293.61,485.48 2296.36,485.07 2298.44,483.88 2299.83,481.93 2300.55,479.22"/>
    </edge>
    <edge id=":Eastchester_Waring_7" function="internal">
        <lane id=":Eastchester_Waring_7_0" index="0" disallow="tram rail_urban rail rail_electric rail_fast ship" speed="13.89" length="15.25" shape="2293.61,485.48 2308.86,485.31"/>
    </edge>
    <edge id=":Eastchester_Waring_8" function="internal">
        <lane id=":Eastchester_Waring_8_0" index="0" disallow="tram rail_urban rail rail_electric rail_fast ship" speed="7.80" length="5.97" shape="2293.61,485.48 2297.66,486.02 2299.25,487.02"/>
    </edge>
    <edge id=":Eastchester_Waring_14" function="internal">
        <lane id=":Eastchester_Waring_14_0" index="0" disallow="tram rail_urban rail rail_electric rail_fast ship" speed="7.80" length="8.70" shape="2299.25,487.02 2300.41,487.74 2301.85,490.65 2302.00,494.74"/>
    </edge>
    <edge id=":Eastchester_Waring_9" function="internal">
        <lane id=":Eastchester_Waring_9_0" index="0" disallow="tram rail_urban rail rail_electric rail_fast ship" speed="6.26" length="9.04" shape="2298.81,494.39 2298.73,491.87 2297.84,490.08 2296.14,489.02 2293.64,488.68"/>
    </edge>
    <edge id=":Eastchester_Waring_10" function="internal">
        <lane id=":Eastchester_Waring_10_0" index="0" disallow="tram rail_urban rail rail_electric rail_fast ship" speed="27.78" length="15.27" shape="2298.81,494.39 2300.55,479.22"/>
    </edge>
    <edge id=":Eastchester_Waring_11" function="internal">
        <lane id=":Eastchester_Waring_11_0" index="0" disallow="tram rail_urban rail rail_electric rail_fast ship" speed="8.61" length="6.25" shape="2298.81,494.39 2299.81,490.46 2301.08,488.67"/>
    </edge>
    <edge id=":Eastchester_Waring_15" function="internal">
        <lane id=":Eastchester_Waring_15_0" index="0" disallow="tram rail_urban rail rail_electric rail_fast ship" speed="8.61" length="8.81" shape="2301.08,488.67 2301.81,487.63 2304.83,485.92 2308.86,485.31"/>
    </edge>
    <edge id=":Fenton_Mace_0" function="internal">
        <lane id=":Fenton_Mace_0_0" index="0" disallow="tram rail_urban rail rail_electric rail_fast ship" speed="6.08" length="7.74" shape="2196.66,697.03 2194.55,696.76 2193.04,695.87 2192.13,694.38 2191.80,692.29"/>
    </edge>
    <edge id=":Fenton_Mace_1" function="internal">
        <lane id=":Fenton_Mace_1_0" index="0" disallow="tram rail_urban rail rail_electric rail_fast ship" speed="3.90" length="2.58" shape="2195.00,692.25 2195.11,692.95 2195.42,693.45 2195.92,693.74 2196.62,693.83"/>
    </edge>
    <edge id=":Fenton_Pelham_0" function="internal">
        <lane id=":Fenton_Pelham_0_0" index="0" disallow="tram rail_urban rail rail_electric rail_fast ship" speed="3.65" length="4.67" shape="2186.16,218.15 2186.94,216.94 2187.73,216.52 2188.54,216.91 2189.36,218.09"/>
    </edge>
    <edge id=":Fenton_Pelham_1" function="internal">
        <lane id=":Fenton_Pelham_1_0" index="0" disallow="tram rail_urban rail rail_electric rail_fast ship" speed="6.53" length="8.23" shape="2194.15,212.45 2192.02,213.07 2190.51,214.21 2189.62,215.89 2189.36,218.09"/>
    </edge>
    <edge id=":Fenton_Waring_0" function="internal">
        <lane id=":Fenton_Waring_0_0" index="0" disallow="tram rail_urban rail rail_electric rail_fast ship" speed="13.89" length="14.42" shape="2189.60,495.47 2189.47,481.05"/>
    </edge>
    <edge id=":Fenton_Waring_1" function="internal">
        <lane id=":Fenton_Waring_1_0" index="0" disallow="tram rail_urban rail rail_electric rail_fast ship" speed="8.01" length="5.95" shape="2189.60,495.47 2190.11,491.61 2191.15,489.83"/>
    </edge>
    <edge id=":Fenton_Waring_6" function="internal">
        <lane id=":Fenton_Waring_6_0" index="0" disallow="tram rail_urban rail rail_electric rail_fast ship" speed="8.01" length="8.25" shape="2191.15,489.83 2191.73,488.84 2194.47,487.16 2198.32,486.57"/>
    </edge>
    <edge id=":Fenton_Waring_2" function="internal">
        <lane id=":Fenton_Waring_2_0" index="0" disallow="tram rail_urban rail rail_electric rail_fast ship" speed="6.51" length="9.04" shape="2198.35,489.77 2195.90,490.15 2194.16,491.22 2193.12,492.98 2192.80,495.43"/>
    </edge>
    <edge id=":Fenton_Waring_3" function="internal">
        <lane id=":Fenton_Waring_3_0" index="0" disallow="tram rail_urban rail rail_electric rail_fast ship" speed="7.99" length="14.21" shape="2198.35,489.77 2194.49,489.26 2191.72,487.64 2190.05,484.90 2189.47,481.05"/>
    </edge>
    <edge id=":Fenton_Waring_4" function="internal">
        <lane id=":Fenton_Waring_4_0" index="0" disallow="tram rail_urban rail rail_electric rail_fast ship" speed="6.50" length="9.03" shape="2192.67,481.02 2193.04,483.47 2194.10,485.21 2195.86,486.25 2198.32,486.57"/>
    </edge>
    <edge id=":Fenton_Waring_5" function="internal">
        <lane id=":Fenton_Waring_5_0" index="0" disallow="tram rail_urban rail rail_electric rail_fast ship" speed="13.89" length="14.41" shape="2192.67,481.02 2192.80,495.43"/>
    </edge>
    <edge id=":Kingsland_Mace_0" function="internal">
        <lane id=":Kingsland_Mace_0_0" index="0" disallow="tram rail_urban rail rail_electric rail_fast ship" speed="6.08" length="7.71" shape="2658.78,687.03 2658.50,689.13 2657.62,690.63 2656.14,691.55 2654.05,691.87"/>
    </edge>
    <edge id=":Kingsland_Mace_1" function="internal">
        <lane id=":Kingsland_Mace_1_0" index="0" disallow="tram rail_urban rail rail_electric rail_fast ship" speed="3.90" length="2.57" shape="2654.00,688.67 2654.70,688.57 2655.19,688.26 2655.49,687.76 2655.58,687.06"/>
    </edge>
    <edge id=":Kingsland_Pelham_0" function="internal">
        <lane id=":Kingsland_Pelham_0_0" index="0" disallow="tram rail_urban rail rail_electric rail_fast ship" speed="6.15" length="9.06" shape="2648.93,138.15 2648.53,135.63 2647.42,133.99 2645.59,133.24 2643.04,133.37"/>
    </edge>
    <edge id=":Kingsland_Pelham_1" function="internal">
        <lane id=":Kingsland_Pelham_1_0" index="0" disallow="tram rail_urban rail rail_electric rail_fast ship" speed="3.65" length="4.67" shape="2648.93,138.15 2649.71,136.94 2650.51,136.53 2651.31,136.92 2652.13,138.11"/>
    </edge>
    <edge id=":Mace_Mickle_0" function="internal">
        <lane id=":Mace_Mickle_0_0" index="0" disallow="tram rail_urban rail rail_electric rail_fast ship" speed="13.89" length="14.39" shape="2505.92,693.56 2491.53,693.70"/>
    </edge>
    <edge id=":Mace_Mickle_1" function="internal">
        <lane id=":Mace_Mickle_1_0" index="0" disallow="tram rail_urban rail rail_electric rail_fast ship" speed="8.01" length="5.91" shape="2505.92,693.56 2502.06,693.04 2500.32,692.01"/>
    </edge>
    <edge id=":Mace_Mickle_6" function="internal">
        <lane id=":Mace_Mickle_6_0" index="0" disallow="tram rail_urban rail rail_electric rail_fast ship" speed="8.01" length="8.28" shape="2500.32,692.01 2499.30,691.42 2497.62,688.68 2497.03,684.84"/>
    </edge>
    <edge id=":Mace_Mickle_2" function="internal">
        <lane id=":Mace_Mickle_2_0" index="0" disallow="tram rail_urban rail rail_electric rail_fast ship" speed="6.52" length="9.04" shape="2500.23,684.80 2500.60,687.25 2501.67,688.99 2503.43,690.03 2505.89,690.36"/>
    </edge>
    <edge id=":Mace_Mickle_3" function="internal">
        <lane id=":Mace_Mickle_3_0" index="0" disallow="tram rail_urban rail rail_electric rail_fast ship" speed="8.00" length="14.19" shape="2500.23,684.80 2499.72,688.66 2498.10,691.43 2495.37,693.11 2491.53,693.70"/>
    </edge>
    <edge id=":Mace_Mickle_4" function="internal">
        <lane id=":Mace_Mickle_4_0" index="0" disallow="tram rail_urban rail rail_electric rail_fast ship" speed="6.51" length="9.03" shape="2491.49,690.50 2493.94,690.12 2495.68,689.05 2496.71,687.29 2497.03,684.84"/>
    </edge>
    <edge id=":Mace_Mickle_5" function="internal">
        <lane id=":Mace_Mickle_5_0" index="0" disallow="tram rail_urban rail rail_electric rail_fast ship" speed="13.89" length="14.40" shape="2491.49,690.50 2505.89,690.36"/>
    </edge>