<?xml version="1.0" encoding="UTF-8"?>

<!-- generated on Wed May  6 12:47:54 2020 by Eclipse SUMO duarouter Version 1.5.0
<configuration xmlns:xsi="http://www.w3.org/2001/XMLSchema-instance" xsi:noNamespaceSchemaLocation="http://sumo.dlr.de/xsd/duarouterConfiguration.xsd">

    <input>
        <net-file value="/home/chris/Documents/CSE/researchproject/BscProj-aienvs/aienvs/Sumo/../../scenarios/Sumo/manhattan2/osm.net.xml"/>
        <route-files value="/home/chris/Documents/CSE/researchproject/BscProj-aienvs/aienvs/Sumo/../../scenarios/Sumo/manhattan2/11499_routes.rou.xml"/>
    </input>

    <output>
        <output-file value="routes.rou.xml"/>
        <alternatives-output value="routes.rou.alt.xml"/>
    </output>

    <time>
        <begin value="0"/>
        <end value="3600"/>
    </time>

    <report>
        <no-warnings value="true"/>
        <ignore-errors value="true"/>
        <no-step-log value="true"/>
    </report>

</configuration>
-->

<routes xmlns:xsi="http://www.w3.org/2001/XMLSchema-instance" xsi:noNamespaceSchemaLocation="http://sumo.dlr.de/xsd/routes_file.xsd">
    <vehicle id="0" depart="0.00">
        <route edges="420886261#0 420886261#1 420886261#2 420886254#1 420886255#0 195743161#2 195743161#3 195743161#4 420885244#4 569266470#0 202360048#1 202360048#4 569266471#0 569266471#1 569266473#1 569266473#2"/>
    </vehicle>
    <vehicle id="2" depart="2.00">
        <route edges="756991583#1 756991583#2 195743312#0"/>
    </vehicle>
    <vehicle id="3" depart="3.00">
        <route edges="5670311#3 202360048#4"/>
    </vehicle>
    <vehicle id="5" depart="5.00">
        <route edges="355192293#0 -355192293#0 -497259111#8 -497259111#7 -497259111#6 -497259111#5"/>
    </vehicle>
    <vehicle id="7" depart="7.00">
        <route edges="-355192293#0 355192293#0 355192293#1 355192293#2 -355192293#2"/>
    </vehicle>
    <vehicle id="10" depart="10.00">
        <route edges="195743161#4 420885244#4 569266470#0 5670468#8 420886254#1 420886255#0 195743312#0 195743312#1 420886251#1 355192293#0 355192293#1 355192293#2 -355192293#2"/>
    </vehicle>
    <vehicle id="12" depart="12.00">
        <route edges="420886255#0 195743312#0 195743312#1 420886251#1 420885231#0 420885231#1 420885231#2 420885231#4 420885231#5 420885231#6"/>
    </vehicle>
    <vehicle id="16" depart="16.00">
        <route edges="652023437#3 652023437#4 652023437#6 652023437#7 5670468#2 5670468#3 5670468#4 202360048#1 202360048#4 569266471#0 569266471#1 659645612#1 659645612#3"/>
    </vehicle>
    <vehicle id="18" depart="18.00">
        <route edges="46240375#1 -730895492#1 -730895492#0 -355192293#2 -355192293#1 -355192293#0 420885231#0 420885231#1 420885231#2 420885231#4 420885231#5 420885231#6"/>
    </vehicle>
    <vehicle id="19" depart="19.00">
        <route edges="799234250 799234251 46240375#0 46240375#1 -730895492#1 -730895492#0 -355192293#2 -355192293#1 -355192293#0 -497259111#8 -497259111#7 -497259111#6 -497259111#5 420885244#0 420885244#1"/>
    </vehicle>
    <vehicle id="20" depart="20.00">
        <route edges="5669928#2 569266473#1"/>
    </vehicle>
    <vehicle id="21" depart="21.00">
        <route edges="652023437#12 652023437#13 497259111#1 420885244#0 420885244#1 685336387#1 685336387#2 685336387#3"/>
    </vehicle>
    <vehicle id="22" depart="22.00">
        <route edges="497259111#0 497259111#1 497259111#5 497259111#6 497259111#7 497259111#8"/>
    </vehicle>
    <vehicle id="23" depart="23.00">
        <route edges="5670468#0 5670468#1 5670468#2 5670468#3 5670468#4 5670468#8 420886254#1 420886255#0 195743312#0 195743312#1 420886251#1 355192293#0 355192293#1 355192293#2 730895492#0 -730895492#0"/>
    </vehicle>
    <vehicle id="30" depart="30.00">
        <route edges="-497259111#6 -497259111#5 420885244#0 420885244#1 420885244#4 569266470#0 5670468#8 420886254#1 420886255#0"/>
    </vehicle>
    <vehicle id="32" depart="32.00">
        <route edges="783787945 799234251 46240375#0 46240375#1 32962118 756991583#1 756991583#2 195743161#2 195743161#3 195743161#4 685336387#1 685336387#2 685336387#3"/>
    </vehicle>
    <vehicle id="36" depart="36.00">
        <route edges="5670311#2 5670311#3 202360048#4 569266471#0 569266471#1 659645612#1 659645612#3"/>
    </vehicle>
    <vehicle id="38" depart="38.00">
        <route edges="420886261#2 420886254#1 420886255#0 195743312#0 195743312#1 420886251#1 355192293#0"/>
    </vehicle>
    <vehicle id="39" depart="39.00">
        <route edges="652023437#4 652023437#6 652023437#7 652023437#9 652023437#10 652023437#12 652023437#13 497259111#1 497259111#5 497259111#6 497259111#7"/>
    </vehicle>
    <vehicle id="40" depart="40.00">
        <route edges="-730895492#1 -730895492#0 -355192293#2 -355192293#1 -355192293#0 -497259111#8 497259111#8"/>
    </vehicle>
    <vehicle id="42" depart="42.00">
        <route edges="420886261#1 420886261#2 420886254#1 420886255#0"/>
    </vehicle>
    <vehicle id="43" depart="43.00">
        <route edges="-497259111#7 497259111#7 497259111#8 355192293#0 355192293#1 355192293#2 730895492#0 730895492#1 32962118"/>
    </vehicle>
    <vehicle id="44" depart="44.00">
        <route edges="-497259111#1 497259111#1 420885244#0 420885244#1 420885244#4 569266470#0 202360048#1 202360048#4 569266471#0 569266471#1 659645612#1 659645612#3"/>
    </vehicle>
    <vehicle id="49" depart="49.00">
        <route edges="5670468#0 5670468#1 652023437#9 652023437#10"/>
    </vehicle>
    <vehicle id="51" depart="51.00">
        <route edges="-497259111#5 420885244#0 420885244#1 420885244#4 569266470#0 5670468#8 420886254#1 420886255#0 195743161#2 195743161#3"/>
    </vehicle>
    <vehicle id="52" depart="52.00">
        <route edges="420886251#1 355192293#0 -355192293#0"/>
    </vehicle>
    <vehicle id="55" depart="55.00">
        <route edges="652023437#4 652023437#6 652023437#7 5670468#2 5670468#3 5670468#4 5670468#8 420886254#1 420886255#0 195743312#0 195743312#1 420886251#1 420885231#0 420885231#1 420885231#2 420885231#4 420885231#5"/>
    </vehicle>
    <vehicle id="56" depart="56.00">
        <route edges="32963302#0-AddedOffRampEdge 5669599 46240375#0 46240375#1 32962118 756991583#1"/>
    </vehicle>
    <vehicle id="58" depart="58.00">
        <route edges="46240375#1 -730895492#1 -730895492#0 -355192293#2 -355192293#1 -355192293#0 -497259111#8 -497259111#7 -497259111#6 497259111#6"/>
    </vehicle>
    <vehicle id="59" depart="59.00">
        <route edges="5670468#4 202360048#1 202360048#4 569266471#0 569266471#1 569266473#1 569266473#2"/>
    </vehicle>
    <vehicle id="60" depart="60.00">
        <route edges="-497259111#8 -497259111#7 -497259111#6 -497259111#5 420885244#0 420885244#1 420885244#4 569266470#0 5670468#8"/>
    </vehicle>
    <vehicle id="61" depart="61.00">
        <route edges="420886261#0 420886261#1 420886261#2 420886254#1 420886255#0 195743312#0 195743312#1 420886251#1 420885231#0 420885231#1 420885231#2 420885231#4"/>
    </vehicle>
    <vehicle id="62" depart="62.00">
        <route edges="5670468#1 5670468#2 5670468#3 5670468#4 5670468#8 420886254#1 420886255#0 195743312#0 195743312#1 420886251#1 355192293#0 355192293#1"/>
    </vehicle>
    <vehicle id="66" depart="66.00">
        <route edges="32962118 756991583#1 756991583#2 195743161#2 195743161#3 195743161#4 420885244#4 569266470#0 202360048#1 202360048#4 569266471#0 569266471#1 569266473#1 569266473#2 569266473#4"/>
    </vehicle>
    <vehicle id="67" depart="67.00">
        <route edges="195743161#3 195743161#4 420885244#4 569266470#0 5670468#8 420886254#1 420886255#0 195743312#0 195743312#1 420886251#1 355192293#0 355192293#1 355192293#2 730895492#0 730895492#1 32962118"/>
    </vehicle>
    <vehicle id="68" depart="68.00">
        <route edges="-355192293#1 -355192293#0 355192293#0 355192293#1 355192293#2 730895492#0 730895492#1 32962118"/>
    </vehicle>
    <vehicle id="74" depart="74.00">
        <route edges="5670468#8 420886254#1 420886255#0 195743312#0 195743312#1 420886251#1 -497259111#8 -497259111#7 -497259111#6 -497259111#5 -497259111#1 652023437#14 652023437#15"/>
    </vehicle>
    <vehicle id="77" depart="77.00">
        <route edges="420885240#0 420885240#1 497259111#5 497259111#6 497259111#7 497259111#8 355192293#0"/>
    </vehicle>
    <vehicle id="79" depart="79.00">
        <route edges="5670468#8"/>
    </vehicle>
    <vehicle id="80" depart="80.00">
        <route edges="420885241#1 420885240#0 420885240#1 497259111#5 497259111#6 497259111#7"/>
    </vehicle>
    <vehicle id="86" depart="86.00">
        <route edges="-730895492#0 -355192293#2 -355192293#1 -355192293#0 -497259111#8 -497259111#7 -497259111#6 497259111#6"/>
    </vehicle>
    <vehicle id="87" depart="87.00">
        <route edges="-497259111#1 497259111#1 497259111#5 497259111#6 497259111#7 497259111#8 355192293#0 355192293#1 355192293#2 730895492#0 730895492#1 32962118"/>
    </vehicle>
    <vehicle id="89" depart="89.00">
        <route edges="652023437#10 685336387#4 685336387#5"/>
    </vehicle>
    <vehicle id="91" depart="91.00">
        <route edges="497259111#6 -497259111#6 -497259111#5 420885244#0 420885244#1 420885244#4 569266470#0 5670468#8 420886254#1 420886255#0 195743161#2 195743161#3"/>
    </vehicle>
    <vehicle id="92" depart="92.00">
        <route edges="799234251 46240375#0 46240375#1"/>
    </vehicle>
    <vehicle id="95" depart="95.00">
        <route edges="652023437#7 5670468#2 5670468#3 5670468#4 5670468#8 420886254#1 420886255#0 195743312#0 195743312#1"/>
    </vehicle>
    <vehicle id="97" depart="97.00">
        <route edges="5670468#1 652023437#9 652023437#10 652023437#12 652023437#13 497259111#1 420885244#0 420885244#1"/>
    </vehicle>
    <vehicle id="100" depart="100.00">
        <route edges="420885244#4 569266470#0 5670468#8 420886254#1 420886255#0 195743312#0 195743312#1 420886251#1 420885231#0 420885231#1"/>
    </vehicle>
    <vehicle id="101" depart="101.00">
        <route edges="195743161#2 195743161#3 195743161#4 420885244#4 569266470#0 5670468#8 420886254#1 420886255#0 195743312#0 195743312#1 420886251#1 355192293#0 355192293#1 355192293#2 730895492#0 730895492#1 32962118 756991583#1"/>
    </vehicle>
    <vehicle id="103" depart="103.00">
        <route edges="652023437#4 652023437#6 652023437#7 652023437#9 652023437#10 652023437#12 652023437#13 497259111#1 497259111#5 497259111#6 497259111#7 497259111#8 355192293#0 355192293#1 355192293#2 730895492#0 730895492#1"/>
    </vehicle>
    <vehicle id="104" depart="104.00">
        <route edges="420886255#0 195743312#0 195743312#1 420886251#1 -497259111#8 -497259111#7 -497259111#6 -497259111#5"/>
    </vehicle>
    <vehicle id="106" depart="106.00">
        <route edges="420885241#0 420885241#1 420885240#0 420885240#1 420885244#0 420885244#1 685336387#1 685336387#2 685336387#3"/>
    </vehicle>
    <vehicle id="107" depart="107.00">
        <route edges="497259111#6 -497259111#6 -497259111#5 420885244#0 420885244#1 420885244#4 569266470#0 202360048#1 202360048#4 569266471#0 569266471#1 569266473#1"/>
    </vehicle>
    <vehicle id="111" depart="111.00">
        <route edges="420886261#2 420886254#1 420886255#0 195743161#2 195743161#3"/>
    </vehicle>
    <vehicle id="112" depart="112.00">
        <route edges="730895492#1 -730895492#1 -730895492#0 -355192293#2 -355192293#1 -355192293#0 420885231#0 420885231#1"/>
    </vehicle>
    <vehicle id="117" depart="117.00">
        <route edges="420886252#0 420886261#0 420886261#1 420886261#2 420886254#1 420886255#0 195743312#0 195743312#1 420886251#1 -497259111#8 -497259111#7 -497259111#6 -497259111#5 -497259111#1"/>
    </vehicle>
    <vehicle id="118" depart="118.00">
        <route edges="652023437#4 652023437#6 652023437#7 652023437#9 652023437#10 652023437#12 652023437#13 497259111#1 497259111#5 497259111#6 497259111#7"/>
    </vehicle>
    <vehicle id="119" depart="119.00">
        <route edges="32963302#0-AddedOffRampEdge 5669599 46240375#0 46240375#1 32962118 756991583#1 756991583#2 195743161#2 195743161#3 195743161#4 420885244#4 569266470#0 202360048#1 202360048#4 569266471#0 569266471#1 659645612#1 659645612#3"/>
    </vehicle>
    <vehicle id="120" depart="120.00">
        <route edges="32962118 756991583#1 756991583#2 195743161#2 195743161#3 195743161#4 420885244#4 569266470#0 202360048#1 202360048#4 569266471#0 569266471#1 659645612#1"/>
    </vehicle>
    <vehicle id="122" depart="122.00">
        <route edges="5670468#3 5670468#4 202360048#1 202360048#4"/>
    </vehicle>
    <vehicle id="125" depart="125.00">
        <route edges="420886261#0 420886261#1 420886261#2 420886254#1 420886255#0 195743312#0 195743312#1 420886251#1 -497259111#8 -497259111#7 -497259111#6 -497259111#5 -497259111#1 497259111#1"/>
    </vehicle>
    <vehicle id="130" depart="130.00">
        <route edges="355192293#0 -355192293#0 -497259111#8 -497259111#7 -497259111#6 -497259111#5 420885244#0 420885244#1 685336387#1 685336387#2 685336387#3 652023437#12"/>
    </vehicle>
    <vehicle id="135" depart="135.00">
        <route edges="420886252#0 5670311#2 5670311#3 202360048#4 569266471#0 569266471#1 569266473#1"/>
    </vehicle>
    <vehicle id="139" depart="139.00">
        <route edges="420885241#1 420885240#0 420885240#1 420885244#0 420885244#1 420885244#4 569266470#0 202360048#1 202360048#4 569266471#0 569266471#1 569266473#1"/>
    </vehicle>
    <vehicle id="141" depart="141.00">
        <route edges="420885244#1 685336387#1 685336387#2 685336387#3 652023437#12 652023437#13 652023437#14 652023437#15"/>
    </vehicle>
    <vehicle id="143" depart="143.00">
        <route edges="46240375#1 32962118 756991583#1 756991583#2 195743161#2 195743161#3 195743161#4 420885244#4 569266470#0 202360048#1 202360048#4"/>
    </vehicle>
    <vehicle id="144" depart="144.00">
        <route edges="420885244#0 420885244#1 420885244#4 569266470#0 5670468#8 420886254#1 420886255#0 195743312#0 195743312#1 420886251#1 420885231#0 420885231#1 420885231#2"/>
    </vehicle>
    <vehicle id="145" depart="145.00">
        <route edges="32962118 756991583#1 756991583#2 195743161#2 195743161#3 195743161#4 420885244#4"/>
    </vehicle>
    <vehicle id="146" depart="146.00">
        <route edges="420886252#0 420886261#0 420886261#1 420886261#2 420886254#1 420886255#0 195743161#2 195743161#3 195743161#4 420885244#4 569266470#0 202360048#1"/>
    </vehicle>
    <vehicle id="147" depart="147.00">
        <route edges="420885240#0 420885240#1 497259111#5 497259111#6 497259111#7 497259111#8 355192293#0 355192293#1"/>
    </vehicle>
    <vehicle id="152" depart="152.00">
        <route edges="5670468#3 5670468#4 5670468#8 420886254#1 420886255#0 195743312#0 195743312#1 420886251#1 355192293#0 -355192293#0"/>
    </vehicle>
    <vehicle id="154" depart="154.00">
        <route edges="497259111#1 497259111#5 497259111#6 497259111#7 497259111#8 355192293#0 355192293#1 355192293#2 730895492#0 730895492#1 -730895492#1"/>
    </vehicle>
    <vehicle id="155" depart="155.00">
        <route edges="-730895492#0 -355192293#2 -355192293#1 -355192293#0 -497259111#8 -497259111#7 -497259111#6 -497259111#5 420885244#0 420885244#1 420885244#4 569266470#0 202360048#1"/>
    </vehicle>
    <vehicle id="157" depart="157.00">
        <route edges="497259111#7 -497259111#7 -497259111#6 -497259111#5 420885244#0 420885244#1 685336387#1 685336387#2 685336387#3 652023437#12"/>
    </vehicle>
    <vehicle id="159" depart="159.00">
        <route edges="195743161#2 195743161#3 195743161#4 685336387#1 685336387#2 685336387#3"/>
    </vehicle>
    <vehicle id="160" depart="160.00">
        <route edges="652023437#13 497259111#1 497259111#5 497259111#6 497259111#7 497259111#8 420885231#0 420885231#1 420885231#2 420885231#4 420885231#5"/>
    </vehicle>
    <vehicle id="161" depart="161.00">
        <route edges="420885231#0 420885231#1 420885231#2 420885231#4"/>
    </vehicle>
    <vehicle id="162" depart="162.00">
        <route edges="5670311#2 5670311#3"/>
    </vehicle>
    <vehicle id="165" depart="165.00">
        <route edges="-497259111#8 -497259111#7 -497259111#6 -497259111#5 420885244#0 420885244#1 420885244#4 569266470#0 5670468#8 420886254#1"/>
    </vehicle>
    <vehicle id="166" depart="166.00">
        <route edges="-730895492#1 730895492#1 32962118"/>
    </vehicle>
    <vehicle id="168" depart="168.00">
        <route edges="730895492#0 730895492#1 32962118 756991583#1 756991583#2 195743312#0 195743312#1 420886251#1"/>
    </vehicle>
    <vehicle id="169" depart="169.00">
        <route edges="5669599 46240375#0 46240375#1 32962118 756991583#1 756991583#2 195743161#2 195743161#3 195743161#4 685336387#1 685336387#2 685336387#3 685336387#4"/>
    </vehicle>
    <vehicle id="170" depart="170.00">
        <route edges="46240375#1 -730895492#1 -730895492#0 -355192293#2 -355192293#1 -355192293#0 -497259111#8 497259111#8"/>
    </vehicle>
    <vehicle id="173" depart="173.00">
        <route edges="355192293#0 -355192293#0 -497259111#8 -497259111#7 -497259111#6 -497259111#5 420885244#0 420885244#1 420885244#4 569266470#0"/>
    </vehicle>
    <vehicle id="174" depart="174.00">
        <route edges="-497259111#5 497259111#5 497259111#6 497259111#7 497259111#8 355192293#0 355192293#1 355192293#2 730895492#0 -730895492#0"/>
    </vehicle>
    <vehicle id="175" depart="175.00">
        <route edges="5670468#1 5670468#2 5670468#3 5670468#4 5670468#8 420886254#1 420886255#0 195743312#0 195743312#1 420886251#1 355192293#0 355192293#1 355192293#2 730895492#0 730895492#1 32962118"/>
    </vehicle>
    <vehicle id="176" depart="176.00">
        <route edges="652023437#13 497259111#1 420885244#0 420885244#1"/>
    </vehicle>
    <vehicle id="177" depart="177.00">
        <route edges="5670468#3 5670468#4 5670468#8 420886254#1 420886255#0 195743312#0 195743312#1 420886251#1 420885231#0 420885231#1 420885231#2 420885231#4 420885231#5"/>
    </vehicle>
    <vehicle id="178" depart="178.00">
        <route edges="730895492#1 32962118 756991583#1 756991583#2"/>
    </vehicle>
    <vehicle id="180" depart="180.00">
        <route edges="-730895492#1 -730895492#0 -355192293#2 -355192293#1 -355192293#0 -497259111#8 -497259111#7 -497259111#6 -497259111#5 420885244#0 420885244#1 685336387#1 685336387#2 685336387#3"/>
    </vehicle>
    <vehicle id="182" depart="182.00">
        <route edges="46240375#1"/>
    </vehicle>
    <vehicle id="183" depart="183.00">
        <route edges="420885240#0 420885240#1 420885244#0 420885244#1 420885244#4 569266470#0 202360048#1 202360048#4 569266471#0 569266471#1 659645612#1"/>
    </vehicle>
    <vehicle id="186" depart="186.00">
        <route edges="652023437#4 652023437#6 652023437#7 652023437#9 652023437#10 652023437#12 652023437#13 497259111#1 497259111#5 497259111#6 497259111#7 497259111#8"/>
    </vehicle>
    <vehicle id="188" depart="188.00">
        <route edges="5670468#0 5670468#1 5670468#2 5670468#3 5670468#4 202360048#1 202360048#4 569266471#0 569266471#1 569266473#1 569266473#2 569266473#4"/>
    </vehicle>
    <vehicle id="189" depart="189.00">
        <route edges="420886255#0 195743312#0 195743312#1 420886251#1"/>
    </vehicle>
    <vehicle id="190" depart="190.00">
        <route edges="685336387#3 652023437#12 652023437#13 497259111#1 420885244#0 420885244#1 420885244#4 569266470#0 202360048#1 202360048#4 569266471#0 569266471#1 569266473#1 569266473#2 569266473#4"/>
    </vehicle>
    <vehicle id="191" depart="191.00">
        <route edges="497259111#7 497259111#8 420885231#0"/>
    </vehicle>
    <vehicle id="197" depart="197.00">
        <route edges="355192293#2 -355192293#2 -355192293#1 -355192293#0 420885231#0 420885231#1 420885231#2 420885231#4 420885231#5 420885231#6"/>
    </vehicle>
    <vehicle id="198" depart="198.00">
        <route edges="652023437#4 652023437#6 652023437#7 652023437#9"/>
    </vehicle>
    <vehicle id="200" depart="200.00">
        <route edges="497259111#8 -497259111#8 -497259111#7 -497259111#6 -497259111#5 420885244#0 420885244#1 420885244#4 569266470#0 202360048#1 202360048#4 569266471#0 569266471#1 659645612#1"/>
    </vehicle>
    <vehicle id="201" depart="201.00">
        <route edges="783787945 799234251 46240375#0 46240375#1 -730895492#1 -730895492#0 -355192293#2 -355192293#1 -355192293#0"/>
    </vehicle>
    <vehicle id="202" depart="202.00">
        <route edges="685336387#2 685336387#3 652023437#12 652023437#13"/>
    </vehicle>
    <vehicle id="203" depart="203.00">
        <route edges="756991583#1 756991583#2 195743161#2"/>
    </vehicle>
    <vehicle id="205" depart="205.00">
        <route edges="5670468#0 5670468#1 652023437#9 652023437#10 685336387#4 685336387#5"/>
    </vehicle>
    <vehicle id="207" depart="207.00">
        <route edges="799234251 46240375#0 46240375#1 -730895492#1 -730895492#0 -355192293#2 -355192293#1 -355192293#0"/>
    </vehicle>
    <vehicle id="208" depart="208.00">
        <route edges="355192293#1 -355192293#1 -355192293#0 -497259111#8 -497259111#7 -497259111#6"/>
    </vehicle>
    <vehicle id="212" depart="212.00">
        <route edges="420886261#1 420886261#2 420886254#1 420886255#0 195743161#2 195743161#3 195743161#4 420885244#4 569266470#0 202360048#1 202360048#4 569266471#0 569266471#1"/>
    </vehicle>
    <vehicle id="215" depart="215.00">
        <route edges="5669599 46240375#0 46240375#1 -730895492#1 -730895492#0 -355192293#2 -355192293#1 -355192293#0 -497259111#8 -497259111#7 -497259111#6 -497259111#5 -497259111#1 497259111#1"/>
    </vehicle>
    <vehicle id="218" depart="218.00">
        <route edges="46240375#1 32962118 756991583#1 756991583#2 195743161#2 195743161#3 195743161#4 685336387#1 685336387#2 685336387#3"/>
    </vehicle>
    <vehicle id="221" depart="221.00">
        <route edges="32962118 756991583#1 756991583#2 195743161#2 195743161#3 195743161#4 420885244#4 569266470#0 5670468#8"/>
    </vehicle>
    <vehicle id="223" depart="223.00">
        <route edges="5670468#3 5670468#4 5670468#8 420886254#1 420886255#0 195743312#0 195743312#1 420886251#1 355192293#0 355192293#1 355192293#2 730895492#0"/>
    </vehicle>
    <vehicle id="224" depart="224.00">
        <route edges="652023437#6 652023437#7 652023437#9 652023437#10 652023437#12 652023437#13 497259111#1 497259111#5 497259111#6 497259111#7 497259111#8 355192293#0 355192293#1 -355192293#1"/>
    </vehicle>
    <vehicle id="230" depart="230.00">
        <route edges="652023437#12 652023437#13 497259111#1 420885244#0 420885244#1 685336387#1"/>
    </vehicle>
    <vehicle id="234" depart="234.00">
        <route edges="652023437#6 652023437#7 5670468#2 5670468#3 5670468#4 5670468#8 420886254#1 420886255#0 195743312#0 195743312#1 420886251#1 420885231#0 420885231#1 420885231#2 420885231#4"/>
    </vehicle>
    <vehicle id="235" depart="235.00">
        <route edges="420886261#2 420886254#1 420886255#0 195743312#0 195743312#1 420886251#1 -497259111#8 -497259111#7 497259111#7"/>
    </vehicle>
    <vehicle id="236" depart="236.00">
        <route edges="5670468#4"/>
    </vehicle>
    <vehicle id="238" depart="238.00">
        <route edges="756991583#2 195743312#0 195743312#1 420886251#1 355192293#0 355192293#1 355192293#2"/>
    </vehicle>
    <vehicle id="240" depart="240.00">
        <route edges="420886261#1 420886261#2 420886254#1 420886255#0 195743161#2 195743161#3 195743161#4 685336387#1"/>
    </vehicle>
    <vehicle id="242" depart="242.00">
        <route edges="-497259111#5 497259111#5 497259111#6 497259111#7 497259111#8 355192293#0 355192293#1 -355192293#1"/>
    </vehicle>
    <vehicle id="247" depart="247.00">
        <route edges="420885244#4 569266470#0 5670468#8 420886254#1 420886255#0 195743161#2 195743161#3 195743161#4 685336387#1 685336387#2 685336387#3 685336387#4"/>
    </vehicle>
    <vehicle id="248" depart="248.00">
        <route edges="5670468#1 652023437#9 652023437#10 652023437#12 652023437#13 497259111#1 420885244#0 420885244#1 420885244#4 569266470#0"/>
    </vehicle>
    <vehicle id="251" depart="251.00">
        <route edges="195743312#1 420886251#1 -497259111#8 -497259111#7 -497259111#6 -497259111#5 420885244#0 420885244#1 685336387#1 685336387#2 685336387#3 652023437#12"/>
    </vehicle>
    <vehicle id="256" depart="256.00">
        <route edges="355192293#2 -355192293#2 -355192293#1 -355192293#0 -497259111#8 -497259111#7 -497259111#6 -497259111#5 -497259111#1 -497259111#0"/>
    </vehicle>
    <vehicle id="257" depart="257.00">
        <route edges="5670468#3 5670468#4 5670468#8 420886254#1 420886255#0 195743312#0 195743312#1 420886251#1 355192293#0 355192293#1 355192293#2 730895492#0"/>
    </vehicle>
    <vehicle id="260" depart="260.00">
        <route edges="355192293#1 -355192293#1 -355192293#0 -497259111#8 -497259111#7 -497259111#6 -497259111#5 420885244#0 420885244#1 685336387#1 685336387#2 685336387#3 685336387#4 685336387#5"/>
    </vehicle>
    <vehicle id="261" depart="261.00">
        <route edges="652023437#6 652023437#7 652023437#9 652023437#10 652023437#12 652023437#13 497259111#1 497259111#5 497259111#6 -497259111#6"/>
    </vehicle>
    <vehicle id="265" depart="265.00">
        <route edges="652023437#0 652023437#3 652023437#4 652023437#6 652023437#7 5670468#2 5670468#3 5670468#4 5670468#8 420886254#1 420886255#0 195743312#0 195743312#1 420886251#1 420885231#0 420885231#1 420885231#2 420885231#4 420885231#5 420885231#6 420885234#1"/>
    </vehicle>
    <vehicle id="267" depart="267.00">
        <route edges="497259111#6 497259111#7 497259111#8 -497259111#8"/>
    </vehicle>
    <vehicle id="268" depart="268.00">
        <route edges="799234250 799234251 46240375#0 46240375#1 32962118 756991583#1 756991583#2 195743161#2 195743161#3 195743161#4 685336387#1 685336387#2 685336387#3 685336387#4 685336387#5"/>
    </vehicle>
    <vehicle id="269" depart="269.00">
        <route edges="420885241#1 420885240#0 420885240#1 -497259111#1 652023437#14 652023437#15"/>
    </vehicle>
    <vehicle id="270" depart="270.00">
        <route edges="497259111#7 -497259111#7 -497259111#6 -497259111#5 420885244#0 420885244#1 420885244#4 569266470#0 5670468#8 420886254#1 420886255#0"/>
    </vehicle>
    <vehicle id="273" depart="273.00">
        <route edges="32963302#0-AddedOffRampEdge 5669599 46240375#0 46240375#1 32962118 756991583#1 756991583#2"/>
    </vehicle>
    <vehicle id="275" depart="275.00">
        <route edges="497259111#6 -497259111#6 -497259111#5 420885244#0 420885244#1 685336387#1"/>
    </vehicle>
    <vehicle id="276" depart="276.00">
        <route edges="420886252#0 420886261#0 420886261#1 420886261#2 420886254#1 420886255#0 195743312#0 195743312#1 420886251#1 355192293#0 355192293#1 355192293#2 730895492#0 -730895492#0"/>
    </vehicle>
    <vehicle id="277" depart="277.00">
        <route edges="652023437#10 652023437#12 652023437#13 497259111#1 420885244#0"/>
    </vehicle>
    <vehicle id="279" depart="279.00">
        <route edges="46240375#1 -730895492#1 -730895492#0 -355192293#2 355192293#2"/>
    </vehicle>
    <vehicle id="281" depart="281.00">
        <route edges="-730895492#0 -355192293#2 -355192293#1 -355192293#0 -497259111#8 -497259111#7 -497259111#6 -497259111#5 420885244#0 420885244#1 420885244#4 569266470#0 202360048#1 202360048#4 569266471#0"/>
    </vehicle>
    <vehicle id="283" depart="283.00">
        <route edges="652023437#13 497259111#1 497259111#5 497259111#6 -497259111#6"/>
    </vehicle>
    <vehicle id="286" depart="286.00">
        <route edges="355192293#0 -355192293#0 -497259111#8 -497259111#7 -497259111#6 -497259111#5 420885244#0 420885244#1 420885244#4 569266470#0 5670468#8 420886254#1"/>
    </vehicle>
    <vehicle id="288" depart="288.00">
        <route edges="355192293#0 -355192293#0 -497259111#8 -497259111#7 -497259111#6 -497259111#5 -497259111#1 -497259111#0"/>
    </vehicle>
    <vehicle id="289" depart="289.00">
        <route edges="5670468#2 5670468#3 5670468#4 5670468#8 420886254#1 420886255#0 195743312#0 195743312#1 420886251#1 355192293#0 355192293#1 355192293#2 730895492#0 -730895492#0"/>
    </vehicle>
    <vehicle id="290" depart="290.00">
        <route edges="652023437#7 652023437#9 652023437#10 652023437#12 652023437#13 497259111#1 497259111#5 497259111#6"/>
    </vehicle>
    <vehicle id="292" depart="292.00">
        <route edges="195743161#3 195743161#4 420885244#4 569266470#0 202360048#1 202360048#4 569266471#0"/>
    </vehicle>
    <vehicle id="293" depart="293.00">
        <route edges="420886255#0 195743161#2 195743161#3 195743161#4 420885244#4 569266470#0"/>
    </vehicle>
    <vehicle id="297" depart="297.00">
        <route edges="-355192293#1 -355192293#0 -497259111#8 -497259111#7 -497259111#6 -497259111#5 420885244#0 420885244#1"/>
    </vehicle>
    <vehicle id="299" depart="299.00">
        <route edges="202360048#1 202360048#4"/>
    </vehicle>
    <vehicle id="301" depart="301.00">
        <route edges="-730895492#0 -355192293#2 -355192293#1"/>
    </vehicle>
    <vehicle id="302" depart="302.00">
        <route edges="420885241#1 420885240#0 420885240#1 420885244#0 420885244#1 420885244#4 569266470#0 202360048#1 202360048#4 569266471#0"/>
    </vehicle>
    <vehicle id="303" depart="303.00">
        <route edges="569266470#0 5670468#8 420886254#1 420886255#0 195743161#2 195743161#3 195743161#4"/>
    </vehicle>
    <vehicle id="306" depart="306.00">
        <route edges="5670468#1 5670468#2 5670468#3 5670468#4 5670468#8 420886254#1 420886255#0 195743312#0 195743312#1 420886251#1 355192293#0 355192293#1"/>
    </vehicle>
    <vehicle id="308" depart="308.00">
        <route edges="497259111#0 497259111#1 497259111#5 497259111#6 497259111#7 497259111#8 -497259111#8"/>
    </vehicle>
    <vehicle id="309" depart="309.00">
        <route edges="783787945 799234251 46240375#0 46240375#1 32962118"/>
    </vehicle>
    <vehicle id="311" depart="311.00">
        <route edges="355192293#0 -355192293#0 -497259111#8 -497259111#7 -497259111#6 -497259111#5 420885244#0"/>
    </vehicle>
    <vehicle id="314" depart="314.00">