<?xml version="1.0" encoding="UTF-8"?>

<!-- generated on 06/13/20 21:34:21 by Eclipse SUMO activitygen Version 1.5.0
<configuration xmlns:xsi="http://www.w3.org/2001/XMLSchema-instance" xsi:noNamespaceSchemaLocation="http://sumo.dlr.de/xsd/activitygenConfiguration.xsd">

    <input>
        <net-file value="osm.net.xml"/>
        <stat-file value="..\..\configuration\routes\osm.stat.xml"/>
    </input>

    <output>
        <output-file value="..\..\configuration\routes\osm.trips.rou.xml"/>
    </output>

    <random_number>
        <seed value="26052020"/>
    </random_number>

</configuration>
-->

<routes xmlns:xsi="http://www.w3.org/2001/XMLSchema-instance" xsi:noNamespaceSchemaLocation="http://sumo.dlr.de/xsd/routes_file.xsd">
    <vType id="default" vClass="passenger" color="red"/>
    <vType id="random" vClass="passenger" color="blue"/>
    <vType id="bus" vClass="bus" color="green"/>

    <trip id="randUni9:1" type="random" depart="86.00" departPos="114.90" arrivalPos="65.57" arrivalSpeed="0.00" from="Eastchester_Road_1_L" to="Fenton_Avenue_3_R"/>
    <trip id="randUni629:1" type="random" depart="158.00" departPos="92.65" arrivalPos="64.29" arrivalSpeed="0.00" from="Eastchester_Road_3_R" to="Astor_Avenue_1_R"/>
    <trip id="randUni50:1" type="random" depart="335.00" departPos="77.58" arrivalPos="61.92" arrivalSpeed="0.00" from="Waring_Avenue_1_R" to="Astor_Avenue_2_L"/>
    <trip id="randUni493:1" type="random" depart="371.00" departPos="73.27" arrivalPos="10.57" arrivalSpeed="0.00" from="Astor_Avenue_1_L" to="Mace_Avenue_4_R"/>
    <trip id="randUni700:1" type="random" depart="537.00" departPos="39.23" arrivalPos="48.62" arrivalSpeed="0.00" from="Fenton_Avenue_2_R" to="Eastchester_Road_2_R"/>
    <trip id="randUni503:1" type="random" depart="702.00" departPos="45.56" arrivalPos="20.74" arrivalSpeed="0.00" from="Mace_Avenue_5_L" to="Woodhull_Avenue_3_L"/>
    <trip id="randUni350:1" type="random" depart="730.00" departPos="83.11" arrivalPos="8.33" arrivalSpeed="0.00" from="Eastchester_Road_1_L" to="Woodhull_Avenue_3_L"/>
    <trip id="randUni188:1" type="random" depart="742.00" departPos="66.87" arrivalPos="3.90" arrivalSpeed="0.00" from="Waring_Avenue_2_L" to="Fenton_Avenue_2_L"/>
    <trip id="randUni29:1" type="random" depart="780.00" departPos="172.57" arrivalPos="20.26" arrivalSpeed="0.00" from="Westervelt_Avenue_1_L" to="Mace_Avenue_1_L"/>
    <trip id="randUni850:1" type="random" depart="799.00" departPos="29.33" arrivalPos="57.55" arrivalSpeed="0.00" from="Eastchester_Road_3_R" to="Mace_Avenue_3_L"/>
    <trip id="randUni337:1" type="random" depart="801.00" departPos="32.47" arrivalPos="68.38" arrivalSpeed="0.00" from="Eastchester_Road_1_L" to="Fenton_Avenue_3_L"/>
    <trip id="randUni1121:1" type="random" depart="811.00" departPos="32.20" arrivalPos="46.63" arrivalSpeed="0.00" from="Woodhull_Avenue_3_L" to="Astor_Avenue_2_L"/>
    <trip id="randUni1232:1" type="random" depart="839.00" departPos="81.25" arrivalPos="35.70" arrivalSpeed="0.00" from="Fenton_Avenue_2_R" to="Waring_Avenue_1_R"/>
    <trip id="randUni70:1" type="random" depart="992.00" departPos="31.12" arrivalPos="64.70" arrivalSpeed="0.00" from="Eastchester_Road_2_L" to="Mace_Avenue_5_L"/>
    <trip id="randUni355:1" type="random" depart="1241.00" departPos="124.78" arrivalPos="2.39" arrivalSpeed="0.00" from="Eastchester_Road_3_L" to="Astor_Avenue_2_L"/>
    <trip id="randUni508:1" type="random" depart="1346.00" departPos="145.74" arrivalPos="70.13" arrivalSpeed="0.00" from="Mickle_Avenue_1_L" to="Waring_Avenue_2_R"/>
    <trip id="randUni598:1" type="random" depart="1376.00" departPos="74.97" arrivalPos="29.87" arrivalSpeed="0.00" from="Westervelt_Avenue_1_L" to="Eastchester_Road_1_R"/>
    <trip id="randUni735:1" type="random" depart="1474.00" departPos="266.08" arrivalPos="72.07" arrivalSpeed="0.00" from="Kingsland_Avenue_1_L" to="Westervelt_Avenue_2_R"/>
    <trip id="randUni264:1" type="random" depart="1509.00" departPos="36.70" arrivalPos="0.69" arrivalSpeed="0.00" from="Waring_Avenue_4_L" to="Westervelt_Avenue_1_R"/>
    <trip id="randUni903:1" type="random" depart="1626.00" departPos="12.25" arrivalPos="294.08" arrivalSpeed="0.00" from="Mace_Avenue_4_L" to="Kingsland_Avenue_1_L"/>
    <trip id="randUni683:1" type="random" depart="1650.00" departPos="30.41" arrivalPos="60.75" arrivalSpeed="0.00" from="Pelham_Parkway_North_4_L" to="Astor_Avenue_3_R"/>
    <trip id="randUni1193:1" type="random" depart="1731.00" departPos="15.29" arrivalPos="42.44" arrivalSpeed="0.00" from="Westervelt_Avenue_2_R" to="Astor_Avenue_3_L"/>
    <trip id="randUni76:1" type="random" depart="1781.00" departPos="4.66" arrivalPos="153.44" arrivalSpeed="0.00" from="Mace_Avenue_5_R" to="Woodhull_Avenue_1_L"/>
    <trip id="randUni1043:1" type="random" depart="1828.00" departPos="21.45" arrivalPos="45.00" arrivalSpeed="0.00" from="Waring_Avenue_1_L" to="Pelham_Parkway_North_4_L"/>
    <trip id="randUni1180:1" type="random" depart="1898.00" departPos="143.31" arrivalPos="0.35" arrivalSpeed="0.00" from="Fenton_Avenue_1_R" to="Waring_Avenue_2_L"/>
    <trip id="randUni106:1" type="random" depart="2003.00" departPos="20.13" arrivalPos="21.31" arrivalSpeed="0.00" from="Astor_Avenue_2_R" to="Woodhull_Avenue_3_R"/>
    <trip id="randUni950:1" type="random" depart="2210.00" departPos="32.09" arrivalPos="25.60" arrivalSpeed="0.00" from="Mace_Avenue_4_L" to="Pelham_Parkway_North_2_L"/>
    <trip id="randUni621:1" type="random" depart="2217.00" departPos="60.95" arrivalPos="35.71" arrivalSpeed="0.00" from="Fenton_Avenue_2_R" to="Astor_Avenue_1_R"/>
    <trip id="randUni513:1" type="random" depart="2255.00" departPos="126.00" arrivalPos="71.17" arrivalSpeed="0.00" from="Woodhull_Avenue_1_R" to="Woodhull_Avenue_3_L"/>
    <trip id="randUni674:1" type="random" depart="2315.00" departPos="41.31" arrivalPos="24.30" arrivalSpeed="0.00" from="Eastchester_Road_3_R" to="Mace_Avenue_4_L"/>
    <trip id="randUni896:1" type="random" depart="2579.00" departPos="85.17" arrivalPos="44.84" arrivalSpeed="0.00" from="Pelham_Parkway_North_1_L" to="Astor_Avenue_2_L"/>
    <trip id="randUni940:1" type="random" depart="3097.00" departPos="110.02" arrivalPos="17.52" arrivalSpeed="0.00" from="Westervelt_Avenue_3_R" to="Eastchester_Road_1_R"/>
    <trip id="randUni1100:1" type="random" depart="3344.00" departPos="49.95" arrivalPos="104.32" arrivalSpeed="0.00" from="Waring_Avenue_2_R" to="Eastchester_Road_2_R"/>
    <trip id="randUni1062:1" type="random" depart="3378.00" departPos="8.65" arrivalPos="26.54" arrivalSpeed="0.00" from="Waring_Avenue_2_R" to="Waring_Avenue_4_R"/>
    <trip id="randUni859:1" type="random" depart="3398.00" departPos="96.49" arrivalPos="69.88" arrivalSpeed="0.00" from="Westervelt_Avenue_2_R" to="Waring_Avenue_2_L"/>
    <trip id="randUni105:1" type="random" depart="3434.00" departPos="131.33" arrivalPos="87.84" arrivalSpeed="0.00" from="Eastchester_Road_2_L" to="Waring_Avenue_1_L"/>
    <trip id="randUni1075:1" type="random" depart="3579.00" departPos="52.10" arrivalPos="79.57" arrivalSpeed="0.00" from="Mace_Avenue_4_R" to="Woodhull_Avenue_2_L"/>
    <trip id="randUni663:1" type="random" depart="3861.00" departPos="17.42" arrivalPos="62.08" arrivalSpeed="0.00" from="Mace_Avenue_4_L" to="Pelham_Parkway_North_1_L"/>
    <trip id="randUni1034:1" type="random" depart="4186.00" departPos="89.75" arrivalPos="59.92" arrivalSpeed="0.00" from="Astor_Avenue_1_L" to="Waring_Avenue_3_R"/>
    <trip id="randUni717:1" type="random" depart="4197.00" departPos="34.48" arrivalPos="57.06" arrivalSpeed="0.00" from="Waring_Avenue_1_R" to="Mace_Avenue_1_L"/>
    <trip id="randUni1151:1" type="random" depart="4351.00" departPos="66.00" arrivalPos="6.60" arrivalSpeed="0.00" from="Astor_Avenue_1_R" to="Waring_Avenue_3_R"/>
    <trip id="randUni690:1" type="random" depart="4503.00" departPos="1.59" arrivalPos="50.45" arrivalSpeed="0.00" from="Westervelt_Avenue_3_R" to="Mickle_Avenue_1_R"/>
    <trip id="randUni410:1" type="random" depart="4539.00" departPos="16.12" arrivalPos="44.18" arrivalSpeed="0.00" from="Eastchester_Road_2_L" to="Waring_Avenue_2_R"/>
    <trip id="randUni575:1" type="random" depart="4578.00" departPos="340.34" arrivalPos="116.65" arrivalSpeed="0.00" from="Kingsland_Avenue_1_R" to="Eastchester_Road_3_L"/>
    <trip id="randUni618:1" type="random" depart="5339.00" departPos="20.47" arrivalPos="60.19" arrivalSpeed="0.00" from="Astor_Avenue_1_R" to="Eastchester_Road_3_L"/>
    <trip id="randUni51:1" type="random" depart="5387.00" departPos="126.99" arrivalPos="56.70" arrivalSpeed="0.00" from="Woodhull_Avenue_3_R" to="Eastchester_Road_2_R"/>
    <trip id="randUni11:1" type="random" depart="5408.00" departPos="17.93" arrivalPos="31.32" arrivalSpeed="0.00" from="Mace_Avenue_1_L" to="Waring_Avenue_2_R"/>
    <trip id="randUni698:1" type="random" depart="5498.00" departPos="27.48" arrivalPos="54.10" arrivalSpeed="0.00" from="Astor_Avenue_3_R" to="Waring_Avenue_2_R"/>
    <trip id="randUni1041:1" type="random" depart="5572.00" departPos="147.18" arrivalPos="2.24" arrivalSpeed="0.00" from="Kingsland_Avenue_2_R" to="Fenton_Avenue_2_R"/>
    <trip id="randUni914:1" type="random" depart="5577.00" departPos="181.07" arrivalPos="72.27" arrivalSpeed="0.00" from="Mickle_Avenue_1_R" to="Woodhull_Avenue_3_L"/>
    <trip id="randUni1218:1" type="random" depart="5630.00" departPos="9.06" arrivalPos="137.46" arrivalSpeed="0.00" from="Mace_Avenue_3_R" to="Westervelt_Avenue_3_R"/>
    <trip id="randUni312:1" type="random" depart="5997.00" departPos="64.12" arrivalPos="138.98" arrivalSpeed="0.00" from="Astor_Avenue_3_R" to="Westervelt_Avenue_2_R"/>
    <trip id="randUni827:1" type="random" depart="6080.00" departPos="49.79" arrivalPos="139.23" arrivalSpeed="0.00" from="Pelham_Parkway_North_3_L_2" to="Eastchester_Road_2_L"/>
    <trip id="randUni297:1" type="random" depart="6245.00" departPos="80.27" arrivalPos="49.56" arrivalSpeed="0.00" from="Woodhull_Avenue_2_R" to="Fenton_Avenue_2_R"/>
    <trip id="randUni507:1" type="random" depart="6276.00" departPos="107.43" arrivalPos="127.27" arrivalSpeed="0.00" from="Mickle_Avenue_1_R" to="Westervelt_Avenue_1_R"/>
    <trip id="randUni90:1" type="random" depart="6503.00" departPos="12.81" arrivalPos="61.51" arrivalSpeed="0.00" from="Astor_Avenue_1_R" to="Astor_Avenue_2_L"/>
    <trip id="randUni986:1" type="random" depart="7033.00" departPos="60.59" arrivalPos="27.03" arrivalSpeed="0.00" from="Mace_Avenue_3_R" to="Woodhull_Avenue_3_R"/>
    <trip id="randUni1079:1" type="random" depart="7157.00" departPos="59.29" arrivalPos="42.38" arrivalSpeed="0.00" from="Fenton_Avenue_1_L" to="Woodhull_Avenue_1_L"/>
    <trip id="randUni428:1" type="random" depart="7215.00" departPos="38.29" arrivalPos="6.99" arrivalSpeed="0.00" from="Waring_Avenue_2_L" to="Waring_Avenue_4_L"/>
    <trip id="randUni546:1" type="random" depart="7280.00" departPos="105.32" arrivalPos="9.83" arrivalSpeed="0.00" from="Woodhull_Avenue_3_R" to="Mace_Avenue_5_R"/>
    <trip id="randUni65:1" type="random" depart="7468.00" departPos="125.30" arrivalPos="35.34" arrivalSpeed="0.00" from="Eastchester_Road_1_L" to="Mace_Avenue_1_R"/>
    <trip id="randUni943:1" type="random" depart="7566.00" departPos="90.24" arrivalPos="1.48" arrivalSpeed="0.00" from="Westervelt_Avenue_1_L" to="Mace_Avenue_5_L"/>
    <trip id="randUni712:1" type="random" depart="7600.00" departPos="80.19" arrivalPos="38.67" arrivalSpeed="0.00" from="Astor_Avenue_2_R" to="Mace_Avenue_3_L"/>
    <trip id="randUni509:1" type="random" depart="7611.00" departPos="127.30" arrivalPos="33.78" arrivalSpeed="0.00" from="Woodhull_Avenue_1_R" to="Kingsland_Avenue_2_R"/>
    <trip id="randUni983:1" type="random" depart="7658.00" departPos="0.70" arrivalPos="153.31" arrivalSpeed="0.00" from="Fenton_Avenue_1_L" to="Woodhull_Avenue_1_R"/>
    <trip id="randUni870:1" type="random" depart="7766.00" departPos="58.41" arrivalPos="80.53" arrivalSpeed="0.00" from="Mickle_Avenue_1_R" to="Mickle_Avenue_1_L"/>
    <trip id="randUni445:1" type="random" depart="7819.00" departPos="73.47" arrivalPos="35.46" arrivalSpeed="0.00" from="Pelham_Parkway_North_3_L_2" to="Mace_Avenue_4_L"/>
    <trip id="randUni763:1" type="random" depart="7821.00" departPos="8.15" arrivalPos="64.30" arrivalSpeed="0.00" from="Mace_Avenue_4_R" to="Waring_Avenue_4_L"/>
    <trip id="randUni872:1" type="random" depart="7849.00" departPos="12.55" arrivalPos="33.92" arrivalSpeed="0.00" from="Pelham_Parkway_North_2_L" to="Mace_Avenue_1_R"/>
    <trip id="randUni422:1" type="random" depart="7920.00" departPos="5.86" arrivalPos="69.05" arrivalSpeed="0.00" from="Mickle_Avenue_1_R" to="Woodhull_Avenue_3_L"/>
    <trip id="randUni1238:1" type="random" depart="8193.00" departPos="10.39" arrivalPos="25.26" arrivalSpeed="0.00" from="Fenton_Avenue_2_R" to="Eastchester_Road_2_R"/>
    <trip id="randUni443:1" type="random" depart="8463.00" departPos="131.32" arrivalPos="25.10" arrivalSpeed="0.00" from="Woodhull_Avenue_2_R" to="Mace_Avenue_5_L"/>
    <trip id="randUni460:1" type="random" depart="8519.00" departPos="170.48" arrivalPos="177.07" arrivalSpeed="0.00" from="Fenton_Avenue_1_L" to="Fenton_Avenue_1_R"/>
    <trip id="randUni305:1" type="random" depart="8596.00" departPos="31.20" arrivalPos="87.50" arrivalSpeed="0.00" from="Fenton_Avenue_1_L" to="Astor_Avenue_1_L"/>
    <trip id="randUni878:1" type="random" depart="8944.00" departPos="3.47" arrivalPos="64.93" arrivalSpeed="0.00" from="Waring_Avenue_2_R" to="Mace_Avenue_2_R"/>
    <trip id="randUni415:1" type="random" depart="9217.00" departPos="0.39" arrivalPos="16.30" arrivalSpeed="0.00" from="Mace_Avenue_4_R" to="Astor_Avenue_3_R"/>
    <trip id="randUni315:1" type="random" depart="9231.00" departPos="32.36" arrivalPos="27.49" arrivalSpeed="0.00" from="Mace_Avenue_1_L" to="Mace_Avenue_3_L"/>
    <trip id="randUni439:1" type="random" depart="9570.00" departPos="7.90" arrivalPos="29.33" arrivalSpeed="0.00" from="Kingsland_Avenue_1_R" to="Westervelt_Avenue_3_R"/>
    <trip id="randUni1052:1" type="random" depart="9615.00" departPos="63.49" arrivalPos="32.30" arrivalSpeed="0.00" from="Mace_Avenue_1_R" to="Pelham_Parkway_North_4_L"/>
    <trip id="randUni776:1" type="random" depart="9977.00" departPos="151.87" arrivalPos="54.38" arrivalSpeed="0.00" from="Westervelt_Avenue_2_L" to="Woodhull_Avenue_1_L"/>
    <trip id="randUni972:1" type="random" depart="10353.00" departPos="191.98" arrivalPos="110.05" arrivalSpeed="0.00" from="Eastchester_Road_1_R" to="Fenton_Avenue_2_R"/>
    <trip id="randUni389:1" type="random" depart="10571.00" departPos="46.07" arrivalPos="339.76" arrivalSpeed="0.00" from="Mace_Avenue_5_R" to="Kingsland_Avenue_1_L"/>
    <trip id="randUni79:1" type="random" depart="10715.00" departPos="125.28" arrivalPos="18.73" arrivalSpeed="0.00" from="Woodhull_Avenue_3_R" to="Pelham_Parkway_North_4_L"/>
    <trip id="randUni1202:1" type="random" depart="10738.00" departPos="41.31" arrivalPos="320.49" arrivalSpeed="0.00" from="Waring_Avenue_1_L" to="Kingsland_Avenue_1_L"/>
    <trip id="randUni501:1" type="random" depart="10761.00" departPos="75.91" arrivalPos="64.73" arrivalSpeed="0.00" from="Eastchester_Road_2_L" to="Woodhull_Avenue_1_L"/>
    <trip id="randUni1046:1" type="random" depart="11051.00" departPos="23.72" arrivalPos="63.37" arrivalSpeed="0.00" from="Waring_Avenue_3_L" to="Astor_Avenue_3_R"/>
    <trip id="randUni691:1" type="random" depart="11145.00" departPos="27.99" arrivalPos="163.03" arrivalSpeed="0.00" from="Mace_Avenue_2_R" to="Woodhull_Avenue_1_L"/>
    <trip id="randUni562:1" type="random" depart="11211.00" departPos="50.67" arrivalPos="60.60" arrivalSpeed="0.00" from="Eastchester_Road_3_L" to="Astor_Avenue_1_R"/>
    <trip id="randUni1006:1" type="random" depart="11386.00" departPos="50.84" arrivalPos="52.47" arrivalSpeed="0.00" from="Mace_Avenue_5_R" to="Astor_Avenue_3_R"/>
    <trip id="randUni1201:1" type="random" depart="11917.00" departPos="36.66" arrivalPos="18.87" arrivalSpeed="0.00" from="Waring_Avenue_4_L" to="Mickle_Avenue_1_L"/>
    <trip id="randUni92:1" type="random" depart="12293.00" departPos="179.70" arrivalPos="38.56" arrivalSpeed="0.00" from="Eastchester_Road_1_L" to="Mace_Avenue_4_L"/>
    <trip id="randUni1122:1" type="random" depart="13070.00" departPos="64.99" arrivalPos="1.96" arrivalSpeed="0.00" from="Astor_Avenue_2_L" to="Eastchester_Road_1_L"/>
    <trip id="randUni736:1" type="random" depart="13209.00" departPos="316.06" arrivalPos="11.43" arrivalSpeed="0.00" from="Kingsland_Avenue_1_R" to="Eastchester_Road_3_L"/>
    <trip id="randUni785:1" type="random" depart="13285.00" departPos="6.98" arrivalPos="117.56" arrivalSpeed="0.00" from="Astor_Avenue_2_L" to="Eastchester_Road_3_R"/>
    <trip id="randUni918:1" type="random" depart="13474.00" departPos="91.88" arrivalPos="25.98" arrivalSpeed="0.00" from="Astor_Avenue_1_R" to="Pelham_Parkway_North_2_L"/>
    <trip id="randUni1126:1" type="random" depart="13504.00" departPos="70.15" arrivalPos="55.32" arrivalSpeed="0.00" from="Fenton_Avenue_1_L" to="Waring_Avenue_3_R"/>
    <trip id="randUni1049:1" type="random" depart="13514.00" departPos="102.86" arrivalPos="1.62" arrivalSpeed="0.00" from="Mickle_Avenue_1_L" to="Woodhull_Avenue_3_L"/>
    <trip id="randUni678:1" type="random" depart="13523.00" departPos="128.94" arrivalPos="0.66" arrivalSpeed="0.00" from="Woodhull_Avenue_1_L" to="Westervelt_Avenue_1_R"/>
    <trip id="randUni369:1" type="random" depart="13745.00" departPos="80.43" arrivalPos="126.77" arrivalSpeed="0.00" from="Waring_Avenue_2_L" to="Kingsland_Avenue_2_L"/>
    <trip id="randUni1206:1" type="random" depart="13782.00" departPos="84.76" arrivalPos="56.24" arrivalSpeed="0.00" from="Mace_Avenue_2_L" to="Eastchester_Road_1_L"/>
    <trip id="randUni894:1" type="random" depart="13978.00" departPos="65.85" arrivalPos="61.33" arrivalSpeed="0.00" from="Waring_Avenue_2_L" to="Waring_Avenue_4_L"/>
    <trip id="randUni654:1" type="random" depart="14144.00" departPos="14.63" arrivalPos="125.35" arrivalSpeed="0.00" from="Astor_Avenue_1_L" to="Westervelt_Avenue_3_L"/>
    <trip id="randUni675:1" type="random" depart="14644.00" departPos="16.31" arrivalPos="79.00" arrivalSpeed="0.00" from="Mace_Avenue_5_R" to="Mickle_Avenue_1_R"/>
    <trip id="randUni689:1" type="random" depart="14788.00" departPos="31.03" arrivalPos="168.35" arrivalSpeed="0.00" from="Mace_Avenue_1_R" to="Westervelt_Avenue_1_R"/>
    <trip id="randUni329:1" type="random" depart="14812.00" departPos="31.93" arrivalPos="65.14" arrivalSpeed="0.00" from="Astor_Avenue_2_R" to="Waring_Avenue_1_R"/>
    <trip id="randUni576:1" type="random" depart="14855.00" departPos="49.96" arrivalPos="163.75" arrivalSpeed="0.00" from="Woodhull_Avenue_1_R" to="Eastchester_Road_1_R"/>
    <trip id="randUni1037:1" type="random" depart="15424.00" departPos="120.37" arrivalPos="40.49" arrivalSpeed="0.00" from="Westervelt_Avenue_3_R" to="Woodhull_Avenue_2_R"/>
    <trip id="randUni136:1" type="random" depart="15508.00" departPos="64.35" arrivalPos="19.49" arrivalSpeed="0.00" from="Mace_Avenue_5_L" to="Mace_Avenue_4_L"/>
    <trip id="randUni236:1" type="random" depart="15509.00" departPos="31.76" arrivalPos="114.22" arrivalSpeed="0.00" from="Westervelt_Avenue_2_L" to="Eastchester_Road_3_R"/>
    <trip id="randUni901:1" type="random" depart="15699.00" departPos="31.70" arrivalPos="22.15" arrivalSpeed="0.00" from="Pelham_Parkway_North_3_L_2" to="Astor_Avenue_2_R"/>
    <trip id="randUni895:1" type="random" depart="15719.00" departPos="64.34" arrivalPos="92.03" arrivalSpeed="0.00" from="Mace_Avenue_3_L" to="Woodhull_Avenue_3_L"/>
    <trip id="randUni622:1" type="random" depart="15951.00" departPos="41.02" arrivalPos="47.22" arrivalSpeed="0.00" from="Waring_Avenue_1_L" to="Mace_Avenue_2_R"/>
    <trip id="randUni906:1" type="random" depart="16472.00" departPos="60.42" arrivalPos="83.42" arrivalSpeed="0.00" from="Mace_Avenue_3_R" to="Waring_Avenue_2_R"/>
    <trip id="randUni1214:1" type="random" depart="16770.00" departPos="15.09" arrivalPos="0.37" arrivalSpeed="0.00" from="Mace_Avenue_1_L" to="Pelham_Parkway_North_1_L"/>
    <trip id="randUni863:1" type="random" depart="16818.00" departPos="115.22" arrivalPos="55.58" arrivalSpeed="0.00" from="Fenton_Avenue_3_L" to="Astor_Avenue_1_R"/>
    <trip id="randUni249:1" type="random" depart="17052.00" departPos="109.78" arrivalPos="129.05" arrivalSpeed="0.00" from="Eastchester_Road_1_L" to="Woodhull_Avenue_3_L"/>
    <trip id="randUni968:1" type="random" depart="17151.00" departPos="33.22" arrivalPos="42.29" arrivalSpeed="0.00" from="Eastchester_Road_3_L" to="Mace_Avenue_4_R"/>
    <trip id="randUni296:1" type="random" depart="17306.00" departPos="60.13" arrivalPos="43.81" arrivalSpeed="0.00" from="Mace_Avenue_3_R" to="Mace_Avenue_4_R"/>
    <trip id="randUni327:1" type="random" depart="17311.00" departPos="55.93" arrivalPos="90.33" arrivalSpeed="0.00" from="Waring_Avenue_4_R" to="Waring_Avenue_1_L"/>
    <trip id="randUni1138:1" type="random" depart="17376.00" departPos="61.51" arrivalPos="31.08" arrivalSpeed="0.00" from="Mace_Avenue_3_R" to="Waring_Avenue_3_R"/>
    <trip id="randUni761:1" type="random" depart="17439.00" departPos="72.16" arrivalPos="107.76" arrivalSpeed="0.00" from="Waring_Avenue_2_R" to="Woodhull_Avenue_1_L"/>
    <trip id="randUni982:1" type="random" depart="17463.00" departPos="93.04" arrivalPos="20.13" arrivalSpeed="0.00" from="Eastchester_Road_3_L" to="Westervelt_Avenue_2_R"/>
    <trip id="randUni1130:1" type="random" depart="18239.00" departPos="69.03" arrivalPos="65.44" arrivalSpeed="0.00" from="Astor_Avenue_1_R" to="Mace_Avenue_2_R"/>
    <trip id="randUni984:1" type="random" depart="18285.00" departPos="35.50" arrivalPos="63.31" arrivalSpeed="0.00" from="Mace_Avenue_4_L" to="Astor_Avenue_3_L"/>
    <trip id="randUni370:1" type="random" depart="18424.00" departPos="112.59" arrivalPos="48.90" arrivalSpeed="0.00" from="Westervelt_Avenue_2_R" to="Mace_Avenue_1_L"/>
    <trip id="randUni252:1" type="random" depart="18492.00" departPos="44.83" arrivalPos="100.82" arrivalSpeed="0.00" from="Woodhull_Avenue_1_L" to="Fenton_Avenue_1_R"/>
    <trip id="randUni1074:1" type="random" depart="18727.00" departPos="20.21" arrivalPos="51.81" arrivalSpeed="0.00" from="Waring_Avenue_1_L" to="Woodhull_Avenue_2_L"/>
    <trip id="randUni779:1" type="random" depart="19029.00" departPos="57.68" arrivalPos="6.23" arrivalSpeed="0.00" from="Pelham_Parkway_North_4_L" to="Mace_Avenue_2_R"/>
    <trip id="randUni536:1" type="random" depart="19103.00" departPos="61.64" arrivalPos="15.92" arrivalSpeed="0.00" from="Mace_Avenue_4_R" to="Waring_Avenue_3_R"/>
    <trip id="randUni1182:1" type="random" depart="19403.00" departPos="43.76" arrivalPos="100.62" arrivalSpeed="0.00" from="Mace_Avenue_2_R" to="Westervelt_Avenue_3_L"/>
    <trip id="randUni53:1" type="random" depart="19594.00" departPos="83.45" arrivalPos="75.54" arrivalSpeed="0.00" from="Fenton_Avenue_2_R" to="Astor_Avenue_1_R"/>
    <trip id="randUni1125:1" type="random" depart="19781.00" departPos="129.85" arrivalPos="33.10" arrivalSpeed="0.00" from="Westervelt_Avenue_1_R" to="Pelham_Parkway_North_4_L"/>
    <trip id="randUni869:1" type="random" depart="19896.00" departPos="29.63" arrivalPos="18.02" arrivalSpeed="0.00" from="Mace_Avenue_2_R" to="Waring_Avenue_1_L"/>
    <trip id="randUni338:1" type="random" depart="19930.00" departPos="24.21" arrivalPos="45.99" arrivalSpeed="0.00" from="Eastchester_Road_1_L" to="Pelham_Parkway_North_2_L"/>
    <trip id="randUni218:1" type="random" depart="20003.00" departPos="257.77" arrivalPos="38.28" arrivalSpeed="0.00" from="Kingsland_Avenue_1_L" to="Fenton_Avenue_2_R"/>
    <trip id="randUni952:1" type="random" depart="20058.00" departPos="34.71" arrivalPos="60.52" arrivalSpeed="0.00" from="Westervelt_Avenue_1_R" to="Waring_Avenue_4_R"/>
    <trip id="randUni530:1" type="random" depart="20143.00" departPos="111.13" arrivalPos="67.86" arrivalSpeed="0.00" from="Woodhull_Avenue_3_R" to="Pelham_Parkway_North_3_L_2"/>
    <trip id="randUni82:1" type="random" depart="20288.00" departPos="1.24" arrivalPos="25.43" arrivalSpeed="0.00" from="Eastchester_Road_2_L" to="Mace_Avenue_4_R"/>
    <trip id="randUni647:1" type="random" depart="20310.00" departPos="62.82" arrivalPos="76.85" arrivalSpeed="0.00" from="Kingsland_Avenue_1_R" to="Pelham_Parkway_North_1_L"/>
    <trip id="randUni1077:1" type="random" depart="20377.00" departPos="61.41" arrivalPos="120.92" arrivalSpeed="0.00" from="Woodhull_Avenue_1_L" to="Fenton_Avenue_2_R"/>
    <trip id="randUni335:1" type="random" depart="20502.00" departPos="173.80" arrivalPos="13.76" arrivalSpeed="0.00" from="Westervelt_Avenue_1_L" to="Astor_Avenue_2_R"/>
    <trip id="randUni347:1" type="random" depart="20572.00" departPos="44.79" arrivalPos="69.87" arrivalSpeed="0.00" from="Westervelt_Avenue_1_R" to="Waring_Avenue_2_L"/>
    <trip id="randUni807:1" type="random" depart="20696.00" departPos="13.49" arrivalPos="36.03" arrivalSpeed="0.00" from="Mace_Avenue_1_L" to="Eastchester_Road_2_L"/>
    <trip id="randUni134:1" type="random" depart="20836.00" departPos="20.75" arrivalPos="65.77" arrivalSpeed="0.00" from="Fenton_Avenue_2_L" to="Kingsland_Avenue_2_L"/>
    <trip id="randUni877:1" type="random" depart="20898.00" departPos="164.60" arrivalPos="68.53" arrivalSpeed="0.00" from="Fenton_Avenue_1_L" to="Pelham_Parkway_North_3_L_2"/>
    <trip id="randUni898:1" type="random" depart="21012.00" departPos="20.52" arrivalPos="57.43" arrivalSpeed="0.00" from="Mace_Avenue_1_R" to="Woodhull_Avenue_2_R"/>
    <trip id="randUni1129:1" type="random" depart="21069.00" departPos="22.44" arrivalPos="1.41" arrivalSpeed="0.00" from="Astor_Avenue_3_R" to="Kingsland_Avenue_2_L"/>
    <trip id="randUni871:1" type="random" depart="21239.00" departPos="28.55" arrivalPos="59.15" arrivalSpeed="0.00" from="Waring_Avenue_1_L" to="Fenton_Avenue_3_L"/>
    <trip id="randUni1139:1" type="random" depart="21404.00" departPos="11.19" arrivalPos="253.89" arrivalSpeed="0.00" from="Westervelt_Avenue_1_R" to="Kingsland_Avenue_1_R"/>
    <trip id="randUni326:1" type="random" depart="21480.00" departPos="62.47" arrivalPos="33.96" arrivalSpeed="0.00" from="Mace_Avenue_4_R" to="Eastchester_Road_3_R"/>
    <trip id="randUni911:1" type="random" depart="21670.00" departPos="8.94" arrivalPos="104.20" arrivalSpeed="0.00" from="Fenton_Avenue_2_R" to="Fenton_Avenue_2_R"/>
    <trip id="randUni1112:1" type="random" depart="21731.00" departPos="73.68" arrivalPos="113.13" arrivalSpeed="0.00" from="Westervelt_Avenue_2_R" to="Westervelt_Avenue_1_L"/>
    <trip id="randUni886:1" type="random" depart="21765.00" departPos="131.10" arrivalPos="17.05" arrivalSpeed="0.00" from="Woodhull_Avenue_3_R" to="Pelham_Parkway_North_1_L"/>
    <trip id="randUni1045:1" type="random" depart="22178.00" departPos="24.60" arrivalPos="94.36" arrivalSpeed="0.00" from="Pelham_Parkway_North_1_L" to="Woodhull_Avenue_2_R"/>
    <trip id="randUni642:1" type="random" depart="22254.00" departPos="66.26" arrivalPos="81.97" arrivalSpeed="0.00" from="Astor_Avenue_2_R" to="Pelham_Parkway_North_3_L_2"/>
    <trip id="randUni133:1" type="random" depart="22443.00" departPos="21.86" arrivalPos="174.12" arrivalSpeed="0.00" from="Woodhull_Avenue_3_R" to="Mickle_Avenue_1_R"/>
    <trip id="randUni1061:1" type="random" depart="22518.00" departPos="152.74" arrivalPos="14.16" arrivalSpeed="0.00" from="Kingsland_Avenue_1_L" to="Westervelt_Avenue_1_R"/>
    <trip id="randUni798:1" type="random" depart="22576.00" departPos="95.62" arrivalPos="36.95" arrivalSpeed="0.00" from="Astor_Avenue_1_R" to="Waring_Avenue_1_R"/>
    <trip id="randUni300:1" type="random" depart="22647.00" departPos="9.71" arrivalPos="34.39" arrivalSpeed="0.00" from="Eastchester_Road_3_R" to="Woodhull_Avenue_3_L"/>
    <trip id="randUni144:1" type="random" depart="22829.00" departPos="102.09" arrivalPos="77.59" arrivalSpeed="0.00" from="Fenton_Avenue_3_R" to="Woodhull_Avenue_1_R"/>
    <trip id="randUni862:1" type="random" depart="22970.00" departPos="89.14" arrivalPos="31.91" arrivalSpeed="0.00" from="Pelham_Parkway_North_2_L" to="Astor_Avenue_2_L"/>
    <trip id="randUni528:1" type="random" depart="22982.00" departPos="4.38" arrivalPos="1.31" arrivalSpeed="0.00" from="Eastchester_Road_1_L" to="Mace_Avenue_4_L"/>
    <trip id="randUni637:1" type="random" depart="23735.00" departPos="36.13" arrivalPos="64.39" arrivalSpeed="0.00" from="Pelham_Parkway_North_3_L_2" to="Mace_Avenue_1_L"/>
    <trip id="randUni672:1" type="random" depart="23788.00" departPos="68.88" arrivalPos="77.08" arrivalSpeed="0.00" from="Woodhull_Avenue_3_L" to="Pelham_Parkway_North_3_L_2"/>
    <trip id="randUni996:1" type="random" depart="23812.00" departPos="4.94" arrivalPos="49.41" arrivalSpeed="0.00" from="Westervelt_Avenue_3_L" to="Waring_Avenue_1_L"/>
    <trip id="randUni1157:1" type="random" depart="23846.00" departPos="29.82" arrivalPos="105.09" arrivalSpeed="0.00" from="Astor_Avenue_3_L" to="Woodhull_Avenue_1_R"/>
    <trip id="randUni231:1" type="random" depart="23851.00" departPos="158.56" arrivalPos="128.50" arrivalSpeed="0.00" from="Mickle_Avenue_1_R" to="Eastchester_Road_2_L"/>
    <trip id="randUni769:1" type="random" depart="23909.00" departPos="27.48" arrivalPos="148.38" arrivalSpeed="0.00" from="Mace_Avenue_3_R" to="Westervelt_Avenue_2_R"/>
    <trip id="randUni169:1" type="random" depart="24167.00" departPos="16.93" arrivalPos="5.87" arrivalSpeed="0.00" from="Westervelt_Avenue_2_R" to="Mace_Avenue_3_L"/>
    <trip id="randUni681:1" type="random" depart="24289.00" departPos="128.35" arrivalPos="182.31" arrivalSpeed="0.00" from="Eastchester_Road_1_R" to="Eastchester_Road_1_R"/>
    <trip id="randUni744:1" type="random" depart="24455.00" departPos="246.33" arrivalPos="57.98" arrivalSpeed="0.00" from="Kingsland_Avenue_1_R" to="Waring_Avenue_3_L"/>